SandboxData_C2S7_20210305/C2S7N00617/scenario_003/case.raw
0,100.0,33,0,0,60.0
GRID OPTIMIZATION COMPETITION CHALLENGE 2
INPUT DATA FILES ARE RAW JSON CON
1,'ATHENS 1 1',115.0,1,1,1,1,1.03427899,5.584045,1.1,0.9,1.1,0.9
2,'ATHENS 2 1',115.0,1,1,1,1,1.03185272,5.241471,1.1,0.9,1.1,0.9
3,'ATHENS 3 1',115.0,1,1,1,1,1.0309304,5.184078,1.1,0.9,1.1,0.9
4,'FRANKSTON 1',115.0,1,1,1,1,1.03244817,10.752023,1.1,0.9,1.1,0.9
5,'FRANKSTON 2',115.0,1,1,1,1,1.03239,10.746651,1.1,0.9,1.1,0.9
6,'PALESTINE ~1',115.0,1,1,1,1,1.01063359,9.518231,1.1,0.9,1.1,0.9
7,'PALESTINE ~2',115.0,1,1,1,1,1.01589692,10.28775,1.1,0.9,1.1,0.9
8,'PALESTINE ~3',230.0,1,1,1,1,1.03980541,15.205862,1.1,0.9,1.1,0.9
9,'PALESTINE ~4',115.0,1,1,1,1,1.02705991,12.097137,1.1,0.9,1.1,0.9
10,'PALESTINE ~5',115.0,1,1,1,1,1.02943599,7.75571,1.1,0.9,1.1,0.9
11,'PALESTINE ~6',115.0,1,1,1,1,1.03244758,10.399488,1.1,0.9,1.1,0.9
12,'PALESTINE ~7',230.0,1,1,1,1,1.04087996,14.873883,1.1,0.9,1.1,0.9
13,'PALESTINE ~8',230.0,1,1,1,1,1.04071426,14.76477,1.1,0.9,1.1,0.9
14,'PALESTINE ~9',115.0,1,1,1,1,1.03492296,11.45934,1.1,0.9,1.1,0.9
15,'BUFFALO 1',115.0,1,1,1,1,1.02578187,5.94454,1.1,0.9,1.1,0.9
16,'CENTERVILL~1',115.0,1,1,1,1,1.02799594,4.693407,1.1,0.9,1.1,0.9
17,'CROCKETT 1 1',115.0,1,1,1,1,1.01779234,6.283715,1.1,0.9,1.1,0.9
18,'CROCKETT 1 2',115.0,1,1,1,1,1.01782751,6.288272,1.1,0.9,1.1,0.9
19,'CROCKETT 2 1',230.0,1,1,1,1,1.04002976,11.736378,1.1,0.9,1.1,0.9
20,'CROCKETT 2 2',230.0,1,1,1,1,1.03972208,11.621729,1.1,0.9,1.1,0.9
21,'CROCKETT 2 3',115.0,1,1,1,1,1.03328192,8.83112,1.1,0.9,1.1,0.9
22,'CROCKETT 2 4',230.0,1,1,1,1,1.04066885,11.865054,1.1,0.9,1.1,0.9
23,'ELKHART 1',115.0,1,1,1,1,1.00881767,8.351129,1.1,0.9,1.1,0.9
24,'FAIRFIELD ~1',115.0,1,1,1,1,1.03813863,13.429431,1.1,0.9,1.1,0.9
25,'FAIRFIELD ~2',115.0,1,1,1,1,1.03877199,14.042144,1.1,0.9,1.1,0.9
26,'GRAPELAND 1',115.0,1,1,1,1,1.01010001,7.508211,1.1,0.9,1.1,0.9
27,'JEWETT 1',115.0,1,1,1,1,1.03460848,8.764999,1.1,0.9,1.1,0.9
28,'KENNARD 1',115.0,1,1,1,1,1.02524221,7.441792,1.1,0.9,1.1,0.9
29,'KENNARD 2',115.0,1,1,1,1,1.02526045,7.444286,1.1,0.9,1.1,0.9
30,'LOVELADY 1 1',115.0,1,1,1,1,1.01275682,4.669041,1.1,0.9,1.1,0.9
31,'LOVELADY 2 1',115.0,1,1,1,1,1.01269341,3.706969,1.1,0.9,1.1,0.9
32,'OAKWOOD 1',115.0,1,1,1,1,1.02420473,5.405623,1.1,0.9,1.1,0.9
33,'STREETMAN 1',115.0,1,1,1,1,1.03312838,12.532277,1.1,0.9,1.1,0.9
34,'TEAGUE 1',115.0,1,1,1,1,1.03412402,12.642923,1.1,0.9,1.1,0.9
35,'TENNESSEE ~1',115.0,1,1,1,1,1.02458489,4.80597,1.1,0.9,1.1,0.9
36,'TENNESSEE ~2',115.0,1,1,1,1,1.02353477,4.998509,1.1,0.9,1.1,0.9
37,'GLEN ROSE 1',230.0,1,1,1,1,1.03228199,5.807417,1.1,0.9,1.1,0.9
38,'GLEN ROSE 2',115.0,1,1,1,1,1.03171444,4.457442,1.1,0.9,1.1,0.9
39,'RIO VISTA 1',115.0,1,1,1,1,1.01892281,7.389966,1.1,0.9,1.1,0.9
40,'COMANCHE 1 1',115.0,1,1,1,1,1.00492787,-2.309396,1.1,0.9,1.1,0.9
41,'COMANCHE 1 2',115.0,1,1,1,1,1.00483179,-2.317654,1.1,0.9,1.1,0.9
42,'COMANCHE 2 1',115.0,1,1,1,1,1.00487697,-3.004739,1.1,0.9,1.1,0.9
43,'COMANCHE 2 2',115.0,1,1,1,1,1.00492561,-3.000545,1.1,0.9,1.1,0.9
44,'CROSS PLAI~1',115.0,1,1,1,1,0.99739927,-8.484385,1.1,0.9,1.1,0.9
45,'DE LEON 1',115.0,1,1,1,1,1.0110358,-0.816489,1.1,0.9,1.1,0.9
46,'DUBLIN 1 1',115.0,1,1,1,1,1.0243634,2.124277,1.1,0.9,1.1,0.9
47,'DUBLIN 2 1',230.0,1,1,1,1,1.02547419,3.341935,1.1,0.9,1.1,0.9
48,'DUBLIN 2 2',115.0,1,1,1,1,1.02324593,1.797655,1.1,0.9,1.1,0.9
49,'HICO 1',115.0,1,1,1,1,1.01964366,-0.464591,1.1,0.9,1.1,0.9
50,'HICO 2',115.0,1,1,1,1,1.01959467,-0.468785,1.1,0.9,1.1,0.9
51,'RISING STA~1',115.0,1,1,1,1,0.99924457,-7.417299,1.1,0.9,1.1,0.9
52,'TEMPLE 1 1',115.0,1,1,1,1,1.03271461,0.417876,1.1,0.9,1.1,0.9
53,'TEMPLE 1 2',115.0,1,1,1,1,1.03264403,0.407827,1.1,0.9,1.1,0.9
54,'TEMPLE 2 1',115.0,1,1,1,1,1.03498149,0.675509,1.1,0.9,1.1,0.9
55,'TEMPLE 3 1',115.0,1,1,1,1,1.03288484,0.409871,1.1,0.9,1.1,0.9
56,'TEMPLE 3 2',115.0,1,1,1,1,1.03283179,0.402955,1.1,0.9,1.1,0.9
57,'TEMPLE 4 1',115.0,1,1,1,1,0.99065506,-5.387515,1.1,0.9,1.1,0.9
58,'TEMPLE 5 1',115.0,1,1,1,1,0.99109519,-5.047571,1.1,0.9,1.1,0.9
59,'TEMPLE 6 1',115.0,1,1,1,1,1.03152537,0.068278,1.1,0.9,1.1,0.9
60,'TEMPLE 6 2',115.0,1,1,1,1,1.03147221,0.060985,1.1,0.9,1.1,0.9
61,'TEMPLE 7 1',115.0,1,1,1,1,0.99240512,-5.497258,1.1,0.9,1.1,0.9
62,'BELTON 1 1',115.0,1,1,1,1,1.00976324,-6.207997,1.1,0.9,1.1,0.9
63,'BELTON 2 1',230.0,1,1,1,1,1.0345391,1.078531,1.1,0.9,1.1,0.9
64,'BELTON 2 2',115.0,1,1,1,1,1.01944101,-4.186146,1.1,0.9,1.1,0.9
65,'BELTON 3 1',230.0,1,1,1,1,1.03694034,2.84742,1.1,0.9,1.1,0.9
66,'BELTON 3 2',115.0,1,1,1,1,0.99778271,-5.69316,1.1,0.9,1.1,0.9
67,'BELTON 4 1',115.0,1,1,1,1,0.99365771,-5.922174,1.1,0.9,1.1,0.9
68,'CAMERON 1',115.0,1,1,1,1,1.02577233,2.394524,1.1,0.9,1.1,0.9
69,'GATESVILLE~1',115.0,1,1,1,1,1.00906646,-0.66707,1.1,0.9,1.1,0.9
70,'GATESVILLE~2',115.0,1,1,1,1,1.00314605,-0.496503,1.1,0.9,1.1,0.9
71,'GATESVILLE~3',230.0,1,1,1,1,1.02804422,0.239726,1.1,0.9,1.1,0.9
72,'GATESVILLE~4',115.0,1,1,1,1,1.01564562,-0.61858,1.1,0.9,1.1,0.9
73,'GRANGER 1',115.0,1,1,1,1,0.99140066,-4.948515,1.1,0.9,1.1,0.9
74,'JARRELL 1',115.0,1,1,1,1,1.00990474,-4.198993,1.1,0.9,1.1,0.9
75,'KEMPNER 1 1',115.0,1,1,1,1,1.00843978,-6.361172,1.1,0.9,1.1,0.9
76,'KEMPNER 2 1',115.0,1,1,1,1,1.01183462,-5.627467,1.1,0.9,1.1,0.9
77,'KILLEEN 1 1',115.0,1,1,1,1,1.00545716,-8.09031,1.1,0.9,1.1,0.9
78,'KILLEEN 2 1',115.0,1,1,1,1,1.01024818,-8.824869,1.1,0.9,1.1,0.9
79,'KILLEEN 3 1',115.0,1,1,1,1,1.01538622,-9.623134,1.1,0.9,1.1,0.9
80,'KILLEEN 4 1',115.0,1,1,1,1,1.00378931,-7.760608,1.1,0.9,1.1,0.9
81,'KILLEEN 5 1',115.0,1,1,1,1,1.0029074,-7.780288,1.1,0.9,1.1,0.9
82,'KILLEEN 6 1',115.0,1,1,1,1,1.01075387,-9.371697,1.1,0.9,1.1,0.9
83,'KILLEEN 7 1',230.0,1,1,1,1,1.03884995,0.96823,1.1,0.9,1.1,0.9
84,'KILLEEN 7 2',230.0,1,1,1,1,1.0379535,0.875702,1.1,0.9,1.1,0.9
85,'KILLEEN 7 3',115.0,1,1,1,1,1.03420842,0.300534,1.1,0.9,1.1,0.9
86,'KILLEEN 7 ~1',115.0,1,1,1,1,1.03420711,0.300535,1.1,0.9,1.1,0.9
87,'KILLEEN 8 1',115.0,1,1,1,1,1.02622259,-0.294143,1.1,0.9,1.1,0.9
88,'FORT HOOD ~1',115.0,1,1,1,1,1.00758159,-8.349879,1.1,0.9,1.1,0.9
89,'FORT HOOD ~2',115.0,1,1,1,1,1.01227927,-9.259585,1.1,0.9,1.1,0.9
90,'FORT HOOD ~3',115.0,1,1,1,1,1.01221728,-9.269164,1.1,0.9,1.1,0.9
91,'FORT HOOD ~4',115.0,1,1,1,1,1.01698589,-9.669287,1.1,0.9,1.1,0.9
92,'FORT HOOD ~5',115.0,1,1,1,1,1.01647675,-9.641621,1.1,0.9,1.1,0.9
93,'HARKER HEI~1',115.0,1,1,1,1,1.00688744,-6.941096,1.1,0.9,1.1,0.9
94,'KILLEEN 9 1',115.0,1,1,1,1,1.00283515,-7.836348,1.1,0.9,1.1,0.9
95,'KILLEEN 10 1',115.0,1,1,1,1,1.00771511,-7.896725,1.1,0.9,1.1,0.9
96,'KILLEEN 11 1',115.0,1,1,1,1,1.00502801,-7.645379,1.1,0.9,1.1,0.9
97,'KILLEEN 11 2',115.0,1,1,1,1,1.00514281,-7.635721,1.1,0.9,1.1,0.9
98,'KILLEEN 12 1',230.0,1,1,1,1,1.03027928,-0.947837,1.1,0.9,1.1,0.9
99,'KILLEEN 12~1',230.0,1,1,1,1,1.03027928,-0.947837,1.1,0.9,1.1,0.9
100,'KILLEEN 12 2',115.0,1,1,1,1,1.01085973,-7.377596,1.1,0.9,1.1,0.9
101,'KILLEEN 12 3',230.0,1,1,1,1,1.03018296,-0.962357,1.1,0.9,1.1,0.9
102,'LAMPASAS 1 1',115.0,1,1,1,1,1.02177715,-3.448551,1.1,0.9,1.1,0.9
103,'LAMPASAS 2 1',230.0,1,1,1,1,1.03385019,-0.581862,1.1,0.9,1.1,0.9
104,'LAMPASAS 2 2',115.0,1,1,1,1,1.02598727,-2.660763,1.1,0.9,1.1,0.9
105,'MOODY 1',115.0,1,1,1,1,0.9937346,-2.673485,1.1,0.9,1.1,0.9
106,'MOODY 2',115.0,1,1,1,1,0.99376017,-2.667787,1.1,0.9,1.1,0.9
107,'ROCKDALE 1 1',115.0,1,1,1,1,1.03547323,2.656817,1.1,0.9,1.1,0.9
108,'ROCKDALE 2 1',115.0,1,1,1,1,1.03706634,2.716528,1.1,0.9,1.1,0.9
109,'ROCKDALE 3 1',115.0,1,1,1,1,1.03549433,2.522614,1.1,0.9,1.1,0.9
110,'ROGERS 1',115.0,1,1,1,1,1.02592421,-0.146525,1.1,0.9,1.1,0.9
111,'ROSEBUD 1',115.0,1,1,1,1,1.03153598,1.813532,1.1,0.9,1.1,0.9
112,'TAYLOR 1 1',115.0,1,1,1,1,0.98776412,-6.981674,1.1,0.9,1.1,0.9
113,'TAYLOR 2 1',115.0,1,1,1,1,0.99256331,-7.618146,1.1,0.9,1.1,0.9
114,'TAYLOR 3 1',115.0,1,1,1,1,0.98804933,-7.283997,1.1,0.9,1.1,0.9
115,'TAYLOR 3 2',115.0,1,1,1,1,0.98815376,-7.273623,1.1,0.9,1.1,0.9
116,'THORNDALE ~1',115.0,1,1,1,1,0.98736012,-7.319682,1.1,0.9,1.1,0.9
117,'THORNDALE ~2',115.0,1,1,1,1,1.03884363,3.216392,1.1,0.9,1.1,0.9
118,'TROY 1',115.0,1,1,1,1,1.00315237,0.773057,1.1,0.9,1.1,0.9
119,'CLIFTON 1 1',115.0,1,1,1,1,0.99763066,0.448166,1.1,0.9,1.1,0.9
120,'CLIFTON 2 1',115.0,1,1,1,1,0.997491,0.793987,1.1,0.9,1.1,0.9
121,'CRAWFORD 1',115.0,1,1,1,1,1.00614929,3.308924,1.1,0.9,1.1,0.9
122,'HILLSBORO ~1',230.0,1,1,1,1,1.03536391,8.561454,1.1,0.9,1.1,0.9
123,'HILLSBORO ~2',115.0,1,1,1,1,1.02907622,7.971039,1.1,0.9,1.1,0.9
124,'HILLSBORO ~3',230.0,1,1,1,1,1.03528762,8.557576,1.1,0.9,1.1,0.9
125,'HILLSBORO ~4',115.0,1,1,1,1,1.00983965,7.490724,1.1,0.9,1.1,0.9
126,'HUBBARD 1',115.0,1,1,1,1,1.02867615,6.459604,1.1,0.9,1.1,0.9
127,'LORENA 1',115.0,1,1,1,1,1.01136017,2.126265,1.1,0.9,1.1,0.9
128,'LOTT 1',115.0,1,1,1,1,1.00791132,1.557907,1.1,0.9,1.1,0.9
129,'LOTT 2',115.0,1,1,1,1,1.00787175,1.552331,1.1,0.9,1.1,0.9
130,'MARLIN 1 1',115.0,1,1,1,1,1.02715588,3.851982,1.1,0.9,1.1,0.9
131,'MARLIN 2 1',115.0,1,1,1,1,1.01986444,3.657961,1.1,0.9,1.1,0.9
132,'MART 1',115.0,1,1,1,1,1.03677464,7.84554,1.1,0.9,1.1,0.9
133,'MERIDIAN 1',115.0,1,1,1,1,0.99644029,0.385784,1.1,0.9,1.1,0.9
134,'MEXIA 1',230.0,1,1,1,1,1.04543734,11.820208,1.1,0.9,1.1,0.9
135,'MEXIA 2',115.0,1,1,1,1,1.04172003,9.101591,1.1,0.9,1.1,0.9
136,'MEXIA 3',230.0,1,1,1,1,1.04531157,11.794231,1.1,0.9,1.1,0.9
137,'WEST 1',115.0,1,1,1,1,1.02813852,6.318233,1.1,0.9,1.1,0.9
138,'WHITNEY 1 1',115.0,1,1,1,1,1.03883135,8.485713,1.1,0.9,1.1,0.9
139,'WHITNEY 2 1',115.0,1,1,1,1,1.03658247,8.195134,1.1,0.9,1.1,0.9
140,'WHITNEY 3 1',115.0,1,1,1,1,1.01086354,7.180069,1.1,0.9,1.1,0.9
141,'WACO 1 1',230.0,1,1,1,1,1.04324937,9.363319,1.1,0.9,1.1,0.9
142,'WACO 1 2',230.0,1,1,1,1,1.04239011,9.233914,1.1,0.9,1.1,0.9
143,'WACO 1 3',115.0,1,1,1,1,1.02979374,6.31843,1.1,0.9,1.1,0.9
144,'WACO 1 4',230.0,1,1,1,1,1.04456198,9.494623,1.1,0.9,1.1,0.9
145,'WACO 2 1',115.0,1,1,1,1,1.02523637,6.386978,1.1,0.9,1.1,0.9
146,'WACO 2 2',115.0,1,1,1,1,1.02518749,6.378481,1.1,0.9,1.1,0.9
147,'WACO 3 1',115.0,1,1,1,1,1.02965975,6.843989,1.1,0.9,1.1,0.9
148,'WACO 4 1',115.0,1,1,1,1,1.02028406,5.387335,1.1,0.9,1.1,0.9
149,'WACO 5 1',230.0,1,1,1,1,1.04107249,8.148008,1.1,0.9,1.1,0.9
150,'WACO 5 2',115.0,1,1,1,1,1.02515447,4.575763,1.1,0.9,1.1,0.9
151,'WACO 6 1',115.0,1,1,1,1,1.02598226,6.114945,1.1,0.9,1.1,0.9
152,'WACO 7 1',115.0,1,1,1,1,1.02078223,3.869766,1.1,0.9,1.1,0.9
153,'WACO 8 1',230.0,1,1,1,1,1.03624701,8.860721,1.1,0.9,1.1,0.9
154,'WACO 8 2',115.0,1,1,1,1,1.02311146,5.80834,1.1,0.9,1.1,0.9
155,'WACO 9 1',115.0,1,1,1,1,1.02107167,5.563594,1.1,0.9,1.1,0.9
156,'WACO 9 2',115.0,1,1,1,1,1.0209651,5.547907,1.1,0.9,1.1,0.9
157,'WACO 10 1',115.0,1,1,1,1,1.01982558,5.522914,1.1,0.9,1.1,0.9
158,'WACO 11 1',115.0,1,1,1,1,1.01778531,3.383826,1.1,0.9,1.1,0.9
159,'WACO 12 1',115.0,1,1,1,1,1.01854897,5.210846,1.1,0.9,1.1,0.9
160,'WACO 13 1',115.0,1,1,1,1,1.01645732,4.8429,1.1,0.9,1.1,0.9
161,'WOODWAY 1 1',115.0,1,1,1,1,1.0154072,4.835416,1.1,0.9,1.1,0.9
162,'WOODWAY 2 1',115.0,1,1,1,1,1.01493752,4.803424,1.1,0.9,1.1,0.9
163,'WOODWAY 2 2',115.0,1,1,1,1,1.01485991,4.79527,1.1,0.9,1.1,0.9
164,'BROWNWOOD ~1',115.0,1,1,1,1,1.01115644,-5.130307,1.1,0.9,1.1,0.9
165,'BROWNWOOD ~2',230.0,1,1,1,1,1.03247845,-1.907409,1.1,0.9,1.1,0.9
166,'BROWNWOOD ~3',230.0,1,1,1,1,1.03224301,-1.936831,1.1,0.9,1.1,0.9
167,'BROWNWOOD ~4',115.0,1,1,1,1,1.01624548,-4.660256,1.1,0.9,1.1,0.9
168,'BROWNWOOD ~5',230.0,1,1,1,1,1.03246105,-1.91786,1.1,0.9,1.1,0.9
169,'BROWNWOOD ~6',115.0,1,1,1,1,1.00314701,-6.287796,1.1,0.9,1.1,0.9
170,'BROWNWOOD ~7',115.0,1,1,1,1,1.0033443,-6.271818,1.1,0.9,1.1,0.9
171,'BROWNWOOD ~8',115.0,1,1,1,1,1.01067674,-5.078785,1.1,0.9,1.1,0.9
172,'EARLY 1',115.0,1,1,1,1,1.00935221,-4.873518,1.1,0.9,1.1,0.9
173,'BRADY 1 1',115.0,1,1,1,1,0.99164087,-11.958397,1.1,0.9,1.1,0.9
174,'BRADY 2 1',115.0,1,1,1,1,0.98786986,-11.801543,1.1,0.9,1.1,0.9
175,'BRADY 2 2',115.0,1,1,1,1,0.99075437,-11.397979,1.1,0.9,1.1,0.9
176,'BRADY 2 3',115.0,1,1,1,1,0.98781377,-11.807204,1.1,0.9,1.1,0.9
177,'BRADY 2 3 ~2',230.0,1,1,1,1,0.98783475,-11.804484,1.1,0.9,1.1,0.9
178,'COLEMAN 1 1',115.0,1,1,1,1,0.99620759,-9.594709,1.1,0.9,1.1,0.9
179,'COLEMAN 1 2',115.0,1,1,1,1,0.99616849,-9.599512,1.1,0.9,1.1,0.9
180,'COLEMAN 2 1',115.0,1,1,1,1,0.99633211,-9.378087,1.1,0.9,1.1,0.9
181,'MASON 1',115.0,1,1,1,1,0.99364781,-12.578411,1.1,0.9,1.1,0.9
182,'ROCHELLE 1',115.0,1,1,1,1,0.99866009,-9.462707,1.1,0.9,1.1,0.9
183,'SAN SABA 1',115.0,1,1,1,1,1.00623131,-7.520294,1.1,0.9,1.1,0.9
184,'SANTA ANNA 1',115.0,1,1,1,1,0.99773073,-9.661691,1.1,0.9,1.1,0.9
185,'CONROE 1 1',115.0,1,1,1,1,0.99763936,-3.531621,1.1,0.9,1.1,0.9
186,'CONROE 2 1',230.0,1,1,1,1,1.01821589,-0.446545,1.1,0.9,1.1,0.9
187,'CONROE 2 2',115.0,1,1,1,1,1.00976241,-2.223566,1.1,0.9,1.1,0.9
188,'CONROE 2 3',230.0,1,1,1,1,1.01864052,-0.40045,1.1,0.9,1.1,0.9
189,'CONROE 3 1',115.0,1,1,1,1,1.01310694,-1.830486,1.1,0.9,1.1,0.9
190,'CONROE 4 1',115.0,1,1,1,1,1.01099432,-2.051692,1.1,0.9,1.1,0.9
191,'CONROE 5 1',115.0,1,1,1,1,1.00633824,-2.589582,1.1,0.9,1.1,0.9
192,'CONROE 6 1',115.0,1,1,1,1,1.01002479,-2.144478,1.1,0.9,1.1,0.9
193,'CONROE 7 1',115.0,1,1,1,1,1.01332247,-1.786182,1.1,0.9,1.1,0.9
194,'CONROE 8 1',115.0,1,1,1,1,1.00243032,-4.146298,1.1,0.9,1.1,0.9
195,'CONROE 9 1',115.0,1,1,1,1,1.006675,-2.615255,1.1,0.9,1.1,0.9
196,'CONROE 9 1~1',115.0,1,1,1,1,1.00670326,-2.60707,1.1,0.9,1.1,0.9
197,'MONTGOMERY~1',115.0,1,1,1,1,1.01605523,-1.810661,1.1,0.9,1.1,0.9
198,'WILLIS 1 1',115.0,1,1,1,1,1.01566184,-1.419675,1.1,0.9,1.1,0.9
199,'WILLIS 2 1',115.0,1,1,1,1,1.02232015,0.233864,1.1,0.9,1.1,0.9
200,'WILLIS 3 1',115.0,1,1,1,1,1.01505053,-1.700297,1.1,0.9,1.1,0.9
...
0 / END OF BUS DATA BEGIN LOAD DATA
1,'1',1,1,1,10.953,2.816,0.0,0.0,0.0,0.0,1,1,0
2,'1',1,1,1,8.976,0.351,0.0,0.0,0.0,0.0,1,1,0
3,'1',1,1,1,19.86,1.552,0.0,0.0,0.0,0.0,1,1,0
5,'1',1,1,1,9.942,3.715,0.0,0.0,0.0,0.0,1,1,0
6,'1',1,1,1,14.433,7.253,0.0,0.0,0.0,0.0,1,1,0
7,'1',1,1,1,12.701,5.69,0.0,0.0,0.0,0.0,1,1,0
9,'1',1,1,1,28.607,4.746,0.0,0.0,0.0,0.0,1,1,0
10,'1',1,1,1,14.9,1.747,0.0,0.0,0.0,0.0,1,1,0
11,'1',1,1,1,11.633,4.107,0.0,0.0,0.0,0.0,1,1,0
14,'1',1,1,1,24.302,10.019,0.0,0.0,0.0,0.0,1,1,0
15,'1',1,1,1,12.615,2.484,0.0,0.0,0.0,0.0,1,1,0
16,'1',1,1,1,5.565,1.779,0.0,0.0,0.0,0.0,1,1,0
17,'1',1,1,1,7.483,1.356,0.0,0.0,0.0,0.0,1,1,0
21,'1',1,1,1,20.574,0.783,0.0,0.0,0.0,0.0,1,1,0
23,'1',1,1,1,9.041,2.222,0.0,0.0,0.0,0.0,1,1,0
24,'1',1,1,1,9.529,2.129,0.0,0.0,0.0,0.0,1,1,0
25,'1',1,1,1,9.888,0.864,0.0,0.0,0.0,0.0,1,1,0
26,'1',1,1,1,7.944,1.08,0.0,0.0,0.0,0.0,1,1,0
27,'1',1,1,1,7.608,1.332,0.0,0.0,0.0,0.0,1,1,0
28,'1',1,1,1,4.61,0.697,0.0,0.0,0.0,0.0,1,1,0
30,'1',1,1,1,10.405,1.465,0.0,0.0,0.0,0.0,1,1,0
31,'1',1,1,1,4.407,0.93,0.0,0.0,0.0,0.0,1,1,0
32,'1',1,1,1,7.832,2.32,0.0,0.0,0.0,0.0,1,1,0
33,'1',1,1,1,4.989,1.456,0.0,0.0,0.0,0.0,1,1,0
34,'1',1,1,1,22.315,6.037,0.0,0.0,0.0,0.0,1,1,0
35,'1',1,1,1,17.539,5.467,0.0,0.0,0.0,0.0,1,1,0
36,'1',1,1,1,7.181,2.848,0.0,0.0,0.0,0.0,1,1,0
38,'1',1,1,1,17.837,1.198,0.0,0.0,0.0,0.0,1,1,0
39,'1',1,1,1,9.909,2.136,0.0,0.0,0.0,0.0,1,1,0
41,'1',1,1,1,14.14,4.909,0.0,0.0,0.0,0.0,1,1,0
42,'1',1,1,1,7.874,2.759,0.0,0.0,0.0,0.0,1,1,0
44,'1',1,1,1,3.468,1.058,0.0,0.0,0.0,0.0,1,1,0
45,'1',1,1,1,9.492,2.773,0.0,0.0,0.0,0.0,1,1,0
46,'1',1,1,1,4.968,0.936,0.0,0.0,0.0,0.0,1,1,0
48,'1',1,1,1,12.42,3.636,0.0,0.0,0.0,0.0,1,1,0
50,'1',1,1,1,6.99,2.62,0.0,0.0,0.0,0.0,1,1,0
51,'1',1,1,1,4.778,1.288,0.0,0.0,0.0,0.0,1,1,0
53,'1',1,1,1,17.688,1.987,0.0,0.0,0.0,0.0,1,1,0
54,'1',1,1,1,8.357,3.611,0.0,0.0,0.0,0.0,1,1,0
56,'1',1,1,1,11.472,1.944,0.0,0.0,0.0,0.0,1,1,0
57,'1',1,1,1,26.525,5.644,0.0,0.0,0.0,0.0,1,1,0
58,'1',1,1,1,35.287,4.737,0.0,0.0,0.0,0.0,1,1,0
60,'1',1,1,1,12.558,2.088,0.0,0.0,0.0,0.0,1,1,0
61,'1',1,1,1,22.636,6.261,0.0,0.0,0.0,0.0,1,1,0
62,'1',1,1,1,14.148,1.397,0.0,0.0,0.0,0.0,1,1,0
64,'1',1,1,1,35.172,6.782,0.0,0.0,0.0,0.0,1,1,0
66,'1',1,1,1,57.146,12.017,0.0,0.0,0.0,0.0,1,1,0
67,'1',1,1,1,16.148,10.47,0.0,0.0,0.0,0.0,1,1,0
68,'1',1,1,1,19.434,2.187,0.0,0.0,0.0,0.0,1,1,0
69,'1',1,1,1,9.479,4.07,0.0,0.0,0.0,0.0,1,1,0
70,'1',1,1,1,12.7,4.333,0.0,0.0,0.0,0.0,1,1,0
72,'1',1,1,1,27.224,10.418,0.0,0.0,0.0,0.0,1,1,0
73,'1',1,1,1,11.87,2.444,0.0,0.0,0.0,0.0,1,1,0
74,'1',1,1,1,10.68,1.152,0.0,0.0,0.0,0.0,1,1,0
75,'1',1,1,1,4.838,1.296,0.0,0.0,0.0,0.0,1,1,0
76,'1',1,1,1,4.897,1.907,0.0,0.0,0.0,0.0,1,1,0
76,'2',1,1,1,5.208,1.95,0.0,0.0,0.0,0.0,1,1,0
77,'1',1,1,1,38.011,6.434,0.0,0.0,0.0,0.0,1,1,0
78,'1',1,1,1,10.55,3.44,0.0,0.0,0.0,0.0,1,1,0
79,'1',1,1,1,27.61,22.042,0.0,0.0,0.0,0.0,1,1,0
80,'1',1,1,1,22.152,9.791,0.0,0.0,0.0,0.0,1,1,0
81,'1',1,1,1,13.736,6.065,0.0,0.0,0.0,0.0,1,1,0
81,'2',1,1,1,3.426,1.355,0.0,0.0,0.0,0.0,1,1,0
82,'1',1,1,1,24.872,15.76,0.0,0.0,0.0,0.0,1,1,0
87,'1',1,1,1,16.62,8.234,0.0,0.0,0.0,0.0,1,1,0
88,'1',1,1,1,12.396,3.974,0.0,0.0,0.0,0.0,1,1,0
90,'1',1,1,1,15.099,2.139,0.0,0.0,0.0,0.0,1,1,0
91,'1',1,1,1,15.498,3.51,0.0,0.0,0.0,0.0,1,1,0
91,'2',1,1,1,15.715,4.015,0.0,0.0,0.0,0.0,1,1,0
93,'1',1,1,1,32.718,7.006,0.0,0.0,0.0,0.0,1,1,0
94,'1',1,1,1,19.425,5.136,0.0,0.0,0.0,0.0,1,1,0
95,'1',1,1,1,23.621,6.529,0.0,0.0,0.0,0.0,1,1,0
96,'1',1,1,1,18.42,6.07,0.0,0.0,0.0,0.0,1,1,0
101,'1',1,1,1,25.958,4.181,0.0,0.0,0.0,0.0,1,1,0
102,'1',1,1,1,8.046,2.133,0.0,0.0,0.0,0.0,1,1,0
104,'1',1,1,1,7.57,5.217,0.0,0.0,0.0,0.0,1,1,0
104,'2',1,1,1,10.078,2.463,0.0,0.0,0.0,0.0,1,1,0
105,'1',1,1,1,8.574,0.562,0.0,0.0,0.0,0.0,1,1,0
107,'1',1,1,1,7.04,1.594,0.0,0.0,0.0,0.0,1,1,0
107,'2',1,1,1,1.68,0.84,0.0,0.0,0.0,0.0,1,1,0
108,'1',1,1,1,4.962,1.102,0.0,0.0,0.0,0.0,1,1,0
108,'2',1,1,1,3.812,0.511,0.0,0.0,0.0,0.0,1,1,0
109,'1',1,1,1,8.481,2.842,0.0,0.0,0.0,0.0,1,1,0
110,'1',1,1,1,9.441,0.716,0.0,0.0,0.0,0.0,1,1,0
111,'1',1,1,1,7.68,1.296,0.0,0.0,0.0,0.0,1,1,0
112,'1',1,1,1,8.275,0.66,0.0,0.0,0.0,0.0,1,1,0
112,'2',1,1,1,11.998,2.763,0.0,0.0,0.0,0.0,1,1,0
113,'1',1,1,1,9.144,1.908,0.0,0.0,0.0,0.0,1,1,0
114,'1',1,1,1,15.24,5.43,0.0,0.0,0.0,0.0,1,1,0
114,'2',1,1,1,0.996,0.06,0.0,0.0,0.0,0.0,1,1,0
116,'1',1,1,1,7.68,0.288,0.0,0.0,0.0,0.0,1,1,0
117,'1',1,1,1,3.889,0.44,0.0,0.0,0.0,0.0,1,1,0
118,'1',1,1,1,17.728,6.377,0.0,0.0,0.0,0.0,1,1,0
119,'1',1,1,1,9.834,3.667,0.0,0.0,0.0,0.0,1,1,0
120,'1',1,1,1,23.07,5.625,0.0,0.0,0.0,0.0,1,1,0
121,'1',1,1,1,20.1,8.52,0.0,0.0,0.0,0.0,1,1,0
124,'1',1,1,1,8.124,5.326,0.0,0.0,0.0,0.0,1,1,0
125,'1',1,1,1,17.19,5.807,0.0,0.0,0.0,0.0,1,1,0
126,'1',1,1,1,8.64,4.928,0.0,0.0,0.0,0.0,1,1,0
127,'1',1,1,1,5.4,1.881,0.0,0.0,0.0,0.0,1,1,0
127,'2',1,1,1,1.049,0.699,0.0,0.0,0.0,0.0,1,1,0
129,'1',1,1,1,9.645,1.211,0.0,0.0,0.0,0.0,1,1,0
130,'1',1,1,1,16.305,1.689,0.0,0.0,0.0,0.0,1,1,0
131,'1',1,1,1,17.014,3.847,0.0,0.0,0.0,0.0,1,1,0
132,'1',1,1,1,10.37,2.366,0.0,0.0,0.0,0.0,1,1,0
133,'1',1,1,1,8.993,2.061,0.0,0.0,0.0,0.0,1,1,0
136,'1',1,1,1,44.558,1.386,0.0,0.0,0.0,0.0,1,1,0
137,'1',1,1,1,19.314,0.72,0.0,0.0,0.0,0.0,1,1,0
138,'1',1,1,1,11.03,2.051,0.0,0.0,0.0,0.0,1,1,0
139,'1',1,1,1,9.408,4.6,0.0,0.0,0.0,0.0,1,1,0
140,'1',1,1,1,16.92,4.755,0.0,0.0,0.0,0.0,1,1,0
143,'1',1,1,1,66.706,1.987,0.0,0.0,0.0,0.0,1,1,0
146,'1',1,1,1,14.502,1.657,0.0,0.0,0.0,0.0,1,1,0
147,'1',1,1,1,22.169,3.102,0.0,0.0,0.0,0.0,1,1,0
148,'1',1,1,1,19.694,8.58,0.0,0.0,0.0,0.0,1,1,0
148,'2',1,1,1,8.32,0.36,0.0,0.0,0.0,0.0,1,1,0
150,'1',1,1,1,26.97,8.611,0.0,0.0,0.0,0.0,1,1,0
151,'1',1,1,1,16.524,1.256,0.0,0.0,0.0,0.0,1,1,0
151,'2',1,1,1,1.032,0.26,0.0,0.0,0.0,0.0,1,1,0
152,'1',1,1,1,14.676,2.708,0.0,0.0,0.0,0.0,1,1,0
154,'1',1,1,1,14.356,3.52,0.0,0.0,0.0,0.0,1,1,0
154,'2',1,1,1,16.22,4.331,0.0,0.0,0.0,0.0,1,1,0
156,'1',1,1,1,27.318,4.008,0.0,0.0,0.0,0.0,1,1,0
157,'1',1,1,1,35.77,7.116,0.0,0.0,0.0,0.0,1,1,0
158,'1',1,1,1,45.731,9.977,0.0,0.0,0.0,0.0,1,1,0
159,'1',1,1,1,23.544,1.397,0.0,0.0,0.0,0.0,1,1,0
160,'1',1,1,1,38.182,0.555,0.0,0.0,0.0,0.0,1,1,0
161,'1',1,1,1,33.174,13.761,0.0,0.0,0.0,0.0,1,1,0
163,'1',1,1,1,14.879,4.38,0.0,0.0,0.0,0.0,1,1,0
164,'1',1,1,1,17.63,1.14,0.0,0.0,0.0,0.0,1,1,0
167,'1',1,1,1,18.089,1.855,0.0,0.0,0.0,0.0,1,1,0
169,'1',1,1,1,28.5,11.1,0.0,0.0,0.0,0.0,1,1,0
171,'1',1,1,1,15.119,4.745,0.0,0.0,0.0,0.0,1,1,0
171,'2',1,1,1,2.71,0.228,0.0,0.0,0.0,0.0,1,1,0
172,'1',1,1,1,9.048,1.893,0.0,0.0,0.0,0.0,1,1,0
173,'1',1,1,1,5.202,0.324,0.0,0.0,0.0,0.0,1,1,0
176,'1',1,1,1,13.374,5.143,0.0,0.0,0.0,0.0,1,1,0
179,'1',1,1,1,8.477,1.475,0.0,0.0,0.0,0.0,1,1,0
180,'1',1,1,1,3.818,0.51,0.0,0.0,0.0,0.0,1,1,0
181,'1',1,1,1,8.676,2.033,0.0,0.0,0.0,0.0,1,1,0
182,'1',1,1,1,3.742,0.67,0.0,0.0,0.0,0.0,1,1,0
183,'1',1,1,1,9.18,3.096,0.0,0.0,0.0,0.0,1,1,0
184,'1',1,1,1,5.645,1.085,0.0,0.0,0.0,0.0,1,1,0
185,'1',1,1,1,12.738,3.716,0.0,0.0,0.0,0.0,1,1,0
187,'1',1,1,1,11.22,1.998,0.0,0.0,0.0,0.0,1,1,0
187,'2',1,1,1,10.328,1.057,0.0,0.0,0.0,0.0,1,1,0
189,'1',1,1,1,18.778,1.104,0.0,0.0,0.0,0.0,1,1,0
189,'2',1,1,1,14.957,1.305,0.0,0.0,0.0,0.0,1,1,0
190,'1',1,1,1,18.414,3.206,0.0,0.0,0.0,0.0,1,1,0
190,'2',1,1,1,6.588,1.663,0.0,0.0,0.0,0.0,1,1,0
191,'1',1,1,1,6.606,2.111,0.0,0.0,0.0,0.0,1,1,0
191,'2',1,1,1,9.118,1.794,0.0,0.0,0.0,0.0,1,1,0
192,'1',1,1,1,11.073,0.415,0.0,0.0,0.0,0.0,1,1,0
193,'1',1,1,1,6.918,3.419,0.0,0.0,0.0,0.0,1,1,0
194,'1',1,1,1,31.2,9.011,0.0,0.0,0.0,0.0,1,1,0
195,'1',1,1,1,30.34,4.914,0.0,0.0,0.0,0.0,1,1,0
197,'1',1,1,1,10.772,3.283,0.0,0.0,0.0,0.0,1,1,0
198,'1',1,1,1,10.335,3.738,0.0,0.0,0.0,0.0,1,1,0
199,'1',1,1,1,11.562,2.059,0.0,0.0,0.0,0.0,1,1,0
200,'1',1,1,1,9.858,3.016,0.0,0.0,0.0,0.0,1,1,0
200,'2',1,1,1,12.275,0.067,0.0,0.0,0.0,0.0,1,1,0
203,'1',1,1,1,23.879,10.95,0.0,0.0,0.0,0.0,1,1,0
203,'2',1,1,1,4.13,0.658,0.0,0.0,0.0,0.0,1,1,0
204,'1',1,1,1,18.501,5.667,0.0,0.0,0.0,0.0,1,1,0
205,'1',1,1,1,20.57,3.312,0.0,0.0,0.0,0.0,1,1,0
206,'1',1,1,1,15.687,2.59,0.0,0.0,0.0,0.0,1,1,0
207,'1',1,1,1,34.571,10.578,0.0,0.0,0.0,0.0,1,1,0
208,'1',1,1,1,9.581,1.714,0.0,0.0,0.0,0.0,1,1,0
210,'1',1,1,1,31.762,11.74,0.0,0.0,0.0,0.0,1,1,0
212,'1',1,1,1,51.569,0.915,0.0,0.0,0.0,0.0,1,1,0
213,'1',1,1,1,38.272,2.46,0.0,0.0,0.0,0.0,1,1,0
214,'1',1,1,1,3.633,0.702,0.0,0.0,0.0,0.0,1,1,0
214,'2',1,1,1,3.45,0.099,0.0,0.0,0.0,0.0,1,1,0
218,'1',1,1,1,37.622,4.45,0.0,0.0,0.0,0.0,1,1,0
219,'1',1,1,1,8.106,0.288,0.0,0.0,0.0,0.0,1,1,0
219,'2',1,1,1,6.209,0.853,0.0,0.0,0.0,0.0,1,1,0
220,'1',1,1,1,11.68,2.064,0.0,0.0,0.0,0.0,1,1,0
221,'1',1,1,1,19.962,7.571,0.0,0.0,0.0,0.0,1,1,0
222,'1',1,1,1,16.996,2.105,0.0,0.0,0.0,0.0,1,1,0
224,'1',1,1,1,12.744,1.522,0.0,0.0,0.0,0.0,1,1,0
226,'1',1,1,1,21.5,5.264,0.0,0.0,0.0,0.0,1,1,0
226,'2',1,1,1,15.96,11.832,0.0,0.0,0.0,0.0,1,1,0
228,'1',1,1,1,22.26,4.662,0.0,0.0,0.0,0.0,1,1,0
228,'2',1,1,1,13.652,3.736,0.0,0.0,0.0,0.0,1,1,0
229,'1',1,1,1,29.76,11.205,0.0,0.0,0.0,0.0,1,1,0
232,'1',1,1,1,41.622,26.949,0.0,0.0,0.0,0.0,1,1,0
236,'1',1,1,1,43.074,9.714,0.0,0.0,0.0,0.0,1,1,0
237,'1',1,1,1,20.269,6.75,0.0,0.0,0.0,0.0,1,1,0
238,'1',1,1,1,30.66,10.52,0.0,0.0,0.0,0.0,1,1,0
239,'1',1,1,1,20.802,4.761,0.0,0.0,0.0,0.0,1,1,0
240,'1',1,1,1,5.001,1.461,0.0,0.0,0.0,0.0,1,1,0
240,'2',1,1,1,2.031,0.17,0.0,0.0,0.0,0.0,1,1,0
241,'1',1,1,1,10.658,2.322,0.0,0.0,0.0,0.0,1,1,0
241,'2',1,1,1,6.426,1.4,0.0,0.0,0.0,0.0,1,1,0
242,'1',1,1,1,34.757,6.46,0.0,0.0,0.0,0.0,1,1,0
243,'1',1,1,1,35.252,12.691,0.0,0.0,0.0,0.0,1,1,0
244,'1',1,1,1,20.87,4.968,0.0,0.0,0.0,0.0,1,1,0
245,'1',1,1,1,22.759,6.694,0.0,0.0,0.0,0.0,1,1,0
246,'1',1,1,1,30.33,6.777,0.0,0.0,0.0,0.0,1,1,0
247,'1',1,1,1,6.324,2.825,0.0,0.0,0.0,0.0,1,1,0
...
0 / END OF LOAD DATA BEGIN FIXED SHUNT DATA
0 / END OF FIXED SHUNT DATA BEGIN GENERATOR DATA
476,'1',454.19,12.027,431.0,-258.6,1.05,473,1109.88,0.0,1.0,0.0,0.0,1.0,1,100.0,656.68,454.19,1,1.0,0,1.0,0,1.0,0,1.0,0,1.0
477,'1',230.89,12.027,431.0,-258.6,1.05,473,1109.88,0.0,1.0,0.0,0.0,1.0,1,100.0,656.68,230.89,1,1.0,0,1.0,0,1.0,0,1.0,0,1.0
481,'1',70.02,-20.765,94.84,-66.388,1.04,0,223.6,0.0,1.0,0.0,0.0,1.0,1,100.0,132.29,70.02,1,1.0,0,1.0,0,1.0,0,1.0,0,1.0
482,'1',30.21,94.84,94.84,-56.904,1.048,478,223.6,0.0,1.0,0.0,0.0,1.0,1,100.0,132.29,30.21,1,1.0,0,1.0,0,1.0,0,1.0,0,1.0
483,'1',60.25,94.84,94.84,-56.904,1.048,478,223.6,0.0,1.0,0.0,0.0,1.0,1,100.0,132.29,60.25,1,1.0,0,1.0,0,1.0,0,1.0,0,1.0
487,'1',96.35,98.75,98.75,-59.25,1.046,484,232.8,0.0,1.0,0.0,0.0,1.0,1,100.0,137.74,96.35,1,1.0,0,1.0,0,1.0,0,1.0,0,1.0
488,'1',76.367,98.75,98.75,-59.25,1.046,484,232.8,0.0,1.0,0.0,0.0,1.0,1,100.0,137.74,65.16,1,1.0,0,1.0,0,1.0,0,1.0,0,1.0
493,'1',92.478,41.778,119.58,-71.748,1.053,490,281.91,0.0,1.0,0.0,0.0,1.0,1,100.0,166.8,69.49,1,1.0,0,1.0,0,1.0,0,1.0,0,1.0
494,'1',92.478,41.778,119.58,-71.748,1.053,490,281.91,0.0,1.0,0.0,0.0,1.0,1,100.0,166.8,87.1,1,1.0,0,1.0,0,1.0,0,1.0,0,1.0
495,'1',94.07,41.778,119.58,-71.748,1.053,490,281.91,0.0,1.0,0.0,0.0,1.0,1,100.0,166.8,94.07,1,1.0,0,1.0,0,1.0,0,1.0,0,1.0
496,'1',92.478,41.778,119.58,-71.748,1.053,490,281.91,0.0,1.0,0.0,0.0,1.0,1,100.0,166.8,75.5,1,1.0,0,1.0,0,1.0,0,1.0,0,1.0
500,'1',84.317,-36.63,108.42,-75.894,1.04,0,255.6,0.0,1.0,0.0,0.0,1.0,1,100.0,151.23,41.0,1,1.0,0,1.0,0,1.0,0,1.0,0,1.0
501,'1',83.846,85.187,108.42,-65.052,1.046,497,255.6,0.0,1.0,0.0,0.0,1.0,1,100.0,151.23,32.83,1,1.0,0,1.0,0,1.0,0,1.0,0,1.0
502,'1',83.846,-47.235,108.42,-75.894,1.04,0,255.6,0.0,1.0,0.0,0.0,1.0,1,100.0,151.23,55.54,1,1.0,0,1.0,0,1.0,0,1.0,0,1.0
507,'1',106.831,79.159,138.14,-96.698,1.042,504,325.68,0.0,1.0,0.0,0.0,1.0,1,100.0,192.69,85.62,1,1.0,0,1.0,0,1.0,0,1.0,0,1.0
508,'1',92.54,79.159,138.14,-96.698,1.042,504,325.68,0.0,1.0,0.0,0.0,1.0,1,100.0,192.69,92.54,1,1.0,0,1.0,0,1.0,0,1.0,0,1.0
509,'1',395.255,-67.299,120.0,-120.0,1.04,0,18.0,0.0,1.0,0.0,0.0,1.0,1,100.0,400.0,0.0,1,1.0,0,1.0,0,1.0,0,1.0,0,1.0
510,'1',3.277,-7.816,107.197,-107.197,1.04,0,21.96,0.0,1.0,0.0,0.0,1.0,1,100.0,357.322,0.0,1,1.0,0,1.0,0,1.0,0,1.0,0,1.0
510,'2',123.061,-7.816,120.0,-120.0,1.04,0,21.96,0.0,1.0,0.0,0.0,1.0,1,100.0,400.0,0.0,1,1.0,0,1.0,0,1.0,0,1.0,0,1.0
510,'3',285.291,-7.816,87.65,-87.65,1.04,0,21.96,0.0,1.0,0.0,0.0,1.0,1,100.0,292.167,0.0,1,1.0,0,1.0,0,1.0,0,1.0,0,1.0
513,'1',14.171,6.847,6.847,-6.847,1.04,0,43.2,0.0,1.0,0.0,0.0,1.0,1,100.0,22.824,0.0,1,1.0,0,1.0,0,1.0,0,1.0,0,1.0
513,'2',14.171,7.668,7.668,-7.668,1.04,0,43.2,0.0,1.0,0.0,0.0,1.0,1,100.0,25.56,0.0,1,1.0,0,1.0,0,1.0,0,1.0,0,1.0
514,'1',6.559,6.026,6.026,-6.026,1.04,0,43.2,0.0,1.0,0.0,0.0,1.0,1,100.0,20.086,0.0,1,1.0,0,1.0,0,1.0,0,1.0,0,1.0
515,'1',3.543,1.917,1.917,-1.917,1.04,0,10.8,0.0,1.0,0.0,0.0,1.0,1,100.0,6.39,0.0,1,1.0,0,1.0,0,1.0,0,1.0,0,1.0
515,'2',3.543,1.917,1.917,-1.917,1.04,0,10.8,0.0,1.0,0.0,0.0,1.0,1,100.0,6.39,0.0,1,1.0,0,1.0,0,1.0,0,1.0,0,1.0
520,'1',81.178,-39.625,104.97,-73.479,1.04,0,247.48,0.0,1.0,0.0,0.0,1.0,1,100.0,146.42,75.93,1,1.0,0,1.0,0,1.0,0,1.0,0,1.0
521,'1',99.39,78.163,104.97,-73.479,1.046,517,247.48,0.0,1.0,0.0,0.0,1.0,1,100.0,146.42,99.39,1,1.0,0,1.0,0,1.0,0,1.0,0,1.0
522,'1',81.178,78.163,104.97,-73.479,1.046,517,247.48,0.0,1.0,0.0,0.0,1.0,1,100.0,146.42,71.07,1,1.0,0,1.0,0,1.0,0,1.0,0,1.0
523,'1',20.44,24.899,26.16,-18.312,1.04,0,61.68,0.0,1.0,0.0,0.0,1.0,1,100.0,36.49,20.44,1,1.0,0,1.0,0,1.0,0,1.0,0,1.0
523,'2',20.229,24.899,26.16,-18.312,1.04,0,61.68,0.0,1.0,0.0,0.0,1.0,1,100.0,36.49,5.59,1,1.0,0,1.0,0,1.0,0,1.0,0,1.0
523,'3',20.229,24.899,26.16,-18.312,1.04,0,61.68,0.0,1.0,0.0,0.0,1.0,1,100.0,36.49,15.43,1,1.0,0,1.0,0,1.0,0,1.0,0,1.0
523,'4',20.229,24.899,26.16,-18.312,1.04,0,61.68,0.0,1.0,0.0,0.0,1.0,1,100.0,36.49,13.1,1,1.0,0,1.0,0,1.0,0,1.0,0,1.0
523,'5',21.71,24.899,26.16,-18.312,1.04,0,61.68,0.0,1.0,0.0,0.0,1.0,1,100.0,36.49,21.71,1,1.0,0,1.0,0,1.0,0,1.0,0,1.0
523,'6',20.229,24.899,26.16,-18.312,1.04,0,61.68,0.0,1.0,0.0,0.0,1.0,1,100.0,36.49,10.5,1,1.0,0,1.0,0,1.0,0,1.0,0,1.0
527,'1',105.392,86.073,136.28,-95.396,1.05,524,321.28,0.0,1.0,0.0,0.0,1.0,1,100.0,190.09,41.46,1,1.0,0,1.0,0,1.0,0,1.0,0,1.0
528,'1',105.392,86.073,136.28,-95.396,1.05,524,321.28,0.0,1.0,0.0,0.0,1.0,1,100.0,190.09,77.16,1,1.0,0,1.0,0,1.0,0,1.0,0,1.0
529,'1',105.392,86.073,136.28,-95.396,1.05,524,321.28,0.0,1.0,0.0,0.0,1.0,1,100.0,190.09,95.47,1,1.0,0,1.0,0,1.0,0,1.0,0,1.0
531,'1',6.577,-5.95,8.5,-5.95,1.04,0,20.04,0.0,1.0,0.0,0.0,1.0,1,100.0,11.86,4.98,1,1.0,0,1.0,0,1.0,0,1.0,0,1.0
533,'1',8.28,-5.95,8.5,-5.95,1.04,0,20.04,0.0,1.0,0.0,0.0,1.0,1,100.0,11.86,8.28,1,1.0,0,1.0,0,1.0,0,1.0,0,1.0
533,'2',6.63,-5.95,8.5,-5.95,1.04,0,20.04,0.0,1.0,0.0,0.0,1.0,1,100.0,11.86,6.63,1,1.0,0,1.0,0,1.0,0,1.0,0,1.0
533,'3',8.66,-7.84,11.2,-7.84,1.04,0,26.4,0.0,1.0,0.0,0.0,1.0,1,100.0,15.62,7.83,1,1.0,0,1.0,0,1.0,0,1.0,0,1.0
536,'1',0.585,0.76,0.76,-0.532,1.04,535,100.0,0.0,1.0,0.0,0.0,1.0,1,100.0,1.06,0.16,1,1.0,0,1.0,0,1.0,0,1.0,0,1.0
536,'2',2.82,3.05,3.05,-2.135,1.04,535,100.0,0.0,1.0,0.0,0.0,1.0,1,100.0,4.26,2.82,1,1.0,0,1.0,0,1.0,0,1.0,0,1.0
537,'1',0.902,1.17,1.17,-0.819,1.04,0,2.76,0.0,1.0,0.0,0.0,1.0,1,100.0,1.63,0.75,1,1.0,0,1.0,0,1.0,0,1.0,0,1.0
537,'2',1.815,2.34,2.34,-1.638,1.04,0,5.52,0.0,1.0,0.0,0.0,1.0,1,100.0,3.27,1.21,1,1.0,0,1.0,0,1.0,0,1.0,0,1.0
537,'7',10.008,12.94,12.94,-9.058,1.04,0,30.5,0.0,1.0,0.0,0.0,1.0,1,100.0,18.05,4.65,1,1.0,0,1.0,0,1.0,0,1.0,0,1.0
538,'3',2.362,3.05,3.05,-2.135,1.04,537,100.0,0.0,1.0,0.0,0.0,1.0,1,100.0,4.26,1.79,1,1.0,0,1.0,0,1.0,0,1.0,0,1.0
538,'4',10.008,12.94,12.94,-9.058,1.04,537,100.0,0.0,1.0,0.0,0.0,1.0,1,100.0,18.05,3.9,1,1.0,0,1.0,0,1.0,0,1.0,0,1.0
538,'5',11.14,12.94,12.94,-9.058,1.04,537,100.0,0.0,1.0,0.0,0.0,1.0,1,100.0,18.05,11.14,1,1.0,0,1.0,0,1.0,0,1.0,0,1.0
538,'6',10.008,12.94,12.94,-9.058,1.04,537,100.0,0.0,1.0,0.0,0.0,1.0,1,100.0,18.05,4.53,1,1.0,0,1.0,0,1.0,0,1.0,0,1.0
538,'8',10.008,12.94,12.94,-9.058,1.04,537,100.0,0.0,1.0,0.0,0.0,1.0,1,100.0,18.05,4.12,1,1.0,0,1.0,0,1.0,0,1.0,0,1.0
538,'9',10.008,12.94,12.94,-9.058,1.04,537,100.0,0.0,1.0,0.0,0.0,1.0,1,100.0,18.05,3.18,1,1.0,0,1.0,0,1.0,0,1.0,0,1.0
542,'1',142.892,41.563,184.77,-129.339,1.034,540,435.6,0.0,1.0,0.0,0.0,1.0,1,100.0,257.73,81.68,1,1.0,0,1.0,0,1.0,0,1.0,0,1.0
543,'1',155.03,41.563,184.77,-129.339,1.034,540,435.6,0.0,1.0,0.0,0.0,1.0,1,100.0,257.73,155.03,1,1.0,0,1.0,0,1.0,0,1.0,0,1.0
544,'1',20.93,15.698,24.99,-17.493,1.04,0,58.92,0.0,1.0,0.0,0.0,1.0,1,100.0,34.86,20.93,1,1.0,0,1.0,0,1.0,0,1.0,0,1.0
544,'2',20.35,15.698,24.99,-17.493,1.04,0,58.92,0.0,1.0,0.0,0.0,1.0,1,100.0,34.86,20.35,1,1.0,0,1.0,0,1.0,0,1.0,0,1.0
548,'1',215.89,-27.525,276.52,-165.912,1.046,545,712.08,0.0,1.0,0.0,0.0,1.0,1,100.0,421.31,215.89,1,1.0,0,1.0,0,1.0,0,1.0,0,1.0
549,'1',265.82,-27.525,276.52,-165.912,1.046,545,712.08,0.0,1.0,0.0,0.0,1.0,1,100.0,421.31,265.82,1,1.0,0,1.0,0,1.0,0,1.0,0,1.0
554,'1',44.25,-36.504,53.44,-37.408,1.04,0,126.0,0.0,1.0,0.0,0.0,1.0,1,100.0,74.55,44.25,1,1.0,0,1.0,0,1.0,0,1.0,0,1.0
559,'1',123.53,78.698,211.33,-126.798,1.053,556,544.2,0.0,1.0,0.0,0.0,1.0,1,100.0,321.99,123.53,1,1.0,0,1.0,0,1.0,0,1.0,0,1.0
561,'1',8.228,4.264,4.264,-4.264,1.04,0,25.08,0.0,1.0,0.0,0.0,1.0,1,100.0,14.212,0.0,1,1.0,0,1.0,0,1.0,0,1.0,0,1.0
562,'2',8.228,4.452,4.452,-4.452,1.04,561,100.0,0.0,1.0,0.0,0.0,1.0,1,100.0,14.84,0.0,1,1.0,0,1.0,0,1.0,0,1.0,0,1.0
566,'1',227.74,88.021,308.26,-184.956,1.048,563,793.8,0.0,1.0,0.0,0.0,1.0,1,100.0,469.67,227.74,1,1.0,0,1.0,0,1.0,0,1.0,0,1.0
567,'1',8.66,4.686,4.686,-4.686,1.04,0,26.4,0.0,1.0,0.0,0.0,1.0,1,100.0,15.62,0.0,1,1.0,0,1.0,0,1.0,0,1.0,0,1.0
568,'1',0.0,2.343,2.343,-2.343,1.04,0,26.4,0.0,1.0,0.0,0.0,1.0,1,100.0,7.81,0.0,1,1.0,0,1.0,0,1.0,0,1.0,0,1.0
573,'1',67.975,68.737,87.89,-61.523,1.045,570,207.2,0.0,1.0,0.0,0.0,1.0,1,100.0,122.6,52.76,1,1.0,0,1.0,0,1.0,0,1.0,0,1.0
574,'1',67.975,-17.993,87.89,-61.523,1.04,0,207.2,0.0,1.0,0.0,0.0,1.0,1,100.0,122.6,39.78,1,1.0,0,1.0,0,1.0,0,1.0,0,1.0
575,'1',67.975,-20.779,87.89,-61.523,1.04,0,207.2,0.0,1.0,0.0,0.0,1.0,1,100.0,122.6,41.51,1,1.0,0,1.0,0,1.0,0,1.0,0,1.0
576,'1',67.975,-16.924,87.89,-61.523,1.04,0,207.2,0.0,1.0,0.0,0.0,1.0,1,100.0,122.6,46.2,1,1.0,0,1.0,0,1.0,0,1.0,0,1.0
577,'1',67.975,-19.812,87.89,-61.523,1.04,0,207.2,0.0,1.0,0.0,0.0,1.0,1,100.0,122.6,37.72,1,1.0,0,1.0,0,1.0,0,1.0,0,1.0
578,'1',67.975,-18.585,87.89,-61.523,1.04,0,207.2,0.0,1.0,0.0,0.0,1.0,1,100.0,122.6,38.43,1,1.0,0,1.0,0,1.0,0,1.0,0,1.0
579,'1',55.29,-27.178,82.15,-57.505,1.04,0,193.68,0.0,1.0,0.0,0.0,1.0,1,100.0,114.59,55.29,1,1.0,0,1.0,0,1.0,0,1.0,0,1.0
579,'2',77.68,-27.178,82.15,-57.505,1.04,0,193.68,0.0,1.0,0.0,0.0,1.0,1,100.0,114.59,77.68,1,1.0,0,1.0,0,1.0,0,1.0,0,1.0
579,'3',73.85,-27.178,82.15,-57.505,1.04,0,193.68,0.0,1.0,0.0,0.0,1.0,1,100.0,114.59,73.85,1,1.0,0,1.0,0,1.0,0,1.0,0,1.0
582,'1',35.4,-57.505,82.15,-57.505,1.04,579,193.68,0.0,1.0,0.0,0.0,1.0,1,100.0,114.59,35.4,1,1.0,0,1.0,0,1.0,0,1.0,0,1.0
583,'1',67.46,-0.278,82.15,-57.505,1.04,0,193.68,0.0,1.0,0.0,0.0,1.0,1,100.0,114.59,67.46,1,1.0,0,1.0,0,1.0,0,1.0,0,1.0
586,'1',20.268,26.21,26.21,-18.347,1.04,0,61.8,0.0,1.0,0.0,0.0,1.0,1,100.0,36.56,5.76,1,1.0,0,1.0,0,1.0,0,1.0,0,1.0
586,'2',20.268,26.21,26.21,-18.347,1.04,0,61.8,0.0,1.0,0.0,0.0,1.0,1,100.0,36.56,17.59,1,1.0,0,1.0,0,1.0,0,1.0,0,1.0
586,'3',20.268,26.21,26.21,-18.347,1.04,0,61.8,0.0,1.0,0.0,0.0,1.0,1,100.0,36.56,7.22,1,1.0,0,1.0,0,1.0,0,1.0,0,1.0
586,'4',20.268,26.21,26.21,-18.347,1.04,0,61.8,0.0,1.0,0.0,0.0,1.0,1,100.0,36.56,6.6,1,1.0,0,1.0,0,1.0,0,1.0,0,1.0
589,'1',96.91,6.468,100.95,-60.57,1.04,0,238.0,0.0,1.0,0.0,0.0,1.0,1,100.0,140.81,96.91,1,1.0,0,1.0,0,1.0,0,1.0,0,1.0
590,'1',33.6,9.033,100.95,-60.57,1.04,0,238.0,0.0,1.0,0.0,0.0,1.0,1,100.0,140.81,33.6,1,1.0,0,1.0,0,1.0,0,1.0,0,1.0
591,'1',76.51,5.207,100.95,-60.57,1.04,0,238.0,0.0,1.0,0.0,0.0,1.0,1,100.0,140.81,76.51,1,1.0,0,1.0,0,1.0,0,1.0,0,1.0
596,'1',79.68,-30.961,81.36,-56.952,1.04,0,209.52,0.0,1.0,0.0,0.0,1.0,1,100.0,123.97,79.68,1,1.0,0,1.0,0,1.0,0,1.0,0,1.0
597,'1',68.734,-36.963,81.36,-56.952,1.04,0,209.52,0.0,1.0,0.0,0.0,1.0,1,100.0,123.97,63.69,1,1.0,0,1.0,0,1.0,0,1.0,0,1.0
598,'1',0.957,0.42,0.42,-0.42,1.04,0,1.68,0.0,1.0,0.0,0.0,1.0,1,100.0,1.4,0.0,1,1.0,0,1.0,0,1.0,0,1.0,0,1.0
598,'2',3.728,4.5,4.5,-4.5,1.04,0,36.0,0.0,1.0,0.0,0.0,1.0,1,100.0,15.0,0.0,1,1.0,0,1.0,0,1.0,0,1.0,0,1.0
603,'1',499.88,279.933,469.73,-281.838,1.052,600,1209.6,0.0,1.0,0.0,0.0,1.0,1,100.0,715.68,499.88,1,1.0,0,1.0,0,1.0,0,1.0,0,1.0
607,'1',313.25,46.924,418.33,-250.998,1.054,604,1077.24,0.0,1.0,0.0,0.0,1.0,1,100.0,637.37,313.25,1,1.0,0,1.0,0,1.0,0,1.0,0,1.0
608,'1',414.13,46.924,418.33,-250.998,1.054,604,1077.24,0.0,1.0,0.0,0.0,1.0,1,100.0,637.37,414.13,1,1.0,0,1.0,0,1.0,0,1.0,0,1.0
612,'1',46.579,10.372,30.882,-30.882,1.04,0,180.0,0.0,1.0,0.0,0.0,1.0,1,100.0,102.94,0.0,1,1.0,0,1.0,0,1.0,0,1.0,1,1.0
615,'1',196.6,-11.303,275.22,-165.132,1.04,614,708.72,0.0,1.0,0.0,0.0,1.0,1,100.0,419.33,196.6,1,1.0,0,1.0,0,1.0,0,1.0,0,1.0
617,'1',11.809,6.39,6.39,-6.39,1.04,0,36.0,0.0,1.0,0.0,0.0,1.0,1,100.0,21.3,0.0,1,1.0,0,1.0,0,1.0,0,1.0,0,1.0
617,'2',11.809,6.39,6.39,-6.39,1.04,0,36.0,0.0,1.0,0.0,0.0,1.0,1,100.0,21.3,0.0,1,1.0,0,1.0,0,1.0,0,1.0,0,1.0
0 / END OF GENERATOR DATA BEGIN BRANCH DATA
1,3,'1',0.00635,0.02695,0.00279,158.2,158.2,158.2,0.0,0.0,0.0,0.0,1,1,5.01,1,1.0,0,1.0,0,1.0,0,1.0
2,1,'1',0.01312,0.05468,0.00337,140.2,140.2,140.2,0.0,0.0,0.0,0.0,1,1,7.97,1,1.0,0,1.0,0,1.0,0,1.0
3,2,'1',0.00728,0.0389,0.00738,129.7,129.7,129.7,0.0,0.0,0.0,0.0,1,1,10.89,1,1.0,0,1.0,0,1.0,0,1.0
3,35,'1',0.01367,0.06535,0.01419,185.9,185.9,185.9,0.0,0.0,0.0,0.0,1,1,16.71,1,1.0,0,1.0,0,1.0,0,1.0
4,5,'1',0.0002,0.00108,0.0,345.0,345.0,345.0,0.0,0.0,0.0,0.0,1,1,0.0,1,1.0,0,1.0,0,1.0,0,1.0
4,11,'1',0.01617,0.07615,0.01015,157.3,157.3,157.3,0.0,0.0,0.0,0.0,1,1,14.52,1,1.0,0,1.0,0,1.0,0,1.0
4,14,'1',0.01126,0.07288,0.01627,169.8,169.8,169.8,0.0,0.0,0.0,0.0,1,1,19.02,1,1.0,0,1.0,0,1.0,0,1.0
6,7,'1',0.00995,0.03066,0.00204,154.9,154.9,154.9,0.0,0.0,0.0,0.0,1,1,5.22,1,1.0,0,1.0,0,1.0,0,1.0
6,23,'1',0.01595,0.06409,0.00674,147.6,147.6,147.6,0.0,0.0,0.0,0.0,1,1,11.2,1,1.0,0,1.0,0,1.0,0,1.0
7,9,'1',0.01027,0.05768,0.00205,168.0,168.0,168.0,0.0,0.0,0.0,0.0,1,1,8.2,1,1.0,0,1.0,0,1.0,0,1.0
8,571,'1',0.00384,0.03054,0.20291,549.3,549.3,549.3,0.0,0.0,0.0,0.0,1,1,40.94,1,1.0,0,1.0,0,1.0,0,1.0
10,1,'1',0.01276,0.0733,0.0096,163.6,163.6,163.6,0.0,0.0,0.0,0.0,1,1,15.25,1,1.0,0,1.0,0,1.0,0,1.0
10,11,'1',0.01727,0.06921,0.00586,175.5,175.5,175.5,0.0,0.0,0.0,0.0,1,1,14.27,1,1.0,0,1.0,0,1.0,0,1.0
11,14,'1',0.00558,0.02717,0.00209,178.6,178.6,178.6,0.0,0.0,0.0,0.0,1,1,4.92,1,1.0,0,1.0,0,1.0,0,1.0
12,570,'1',0.00264,0.02133,0.11905,664.2,664.2,664.2,0.0,0.0,0.0,0.0,1,1,28.06,1,1.0,0,1.0,0,1.0,0,1.0
13,8,'1',0.00336,0.03163,0.03708,488.3,488.3,488.3,0.0,0.0,0.0,0.0,1,1,19.41,1,1.0,0,1.0,0,1.0,0,1.0
13,12,'1',0.0001,0.001,0.0,890.3,890.3,890.3,0.0,0.0,0.0,0.0,1,1,0.0,1,1.0,0,1.0,0,1.0,0,1.0
13,20,'1',0.00665,0.05004,0.16528,627.8,627.8,627.8,0.0,0.0,0.0,0.0,1,1,51.78,1,1.0,0,1.0,0,1.0,0,1.0
16,15,'1',0.02141,0.09305,0.00531,145.8,145.8,145.8,0.0,0.0,0.0,0.0,1,1,12.33,1,1.0,0,1.0,0,1.0,0,1.0
17,18,'1',0.00027,0.00115,0.0,138.0,138.0,138.0,0.0,0.0,0.0,0.0,1,1,0.0,1,1.0,0,1.0,0,1.0,0,1.0
18,29,'1',0.01542,0.06443,0.01744,161.7,161.7,161.7,0.0,0.0,0.0,0.0,1,1,18.88,1,1.0,0,1.0,0,1.0,0,1.0
18,30,'1',0.02132,0.0706,0.00591,146.3,146.3,146.3,0.0,0.0,0.0,0.0,1,1,13.81,1,1.0,0,1.0,0,1.0,0,1.0
19,22,'1',0.00025,0.00113,0.0,1500.0,1500.0,1500.0,0.0,0.0,0.0,0.0,1,1,0.0,1,1.0,0,1.0,0,1.0,0,1.0
20,19,'1',0.0001,0.001,0.0,749.6,749.6,749.6,0.0,0.0,0.0,0.0,1,1,0.0,1,1.0,0,1.0,0,1.0,0,1.0
20,201,'1',0.00743,0.05266,0.19472,650.8,650.8,650.8,0.0,0.0,0.0,0.0,1,1,54.1,1,1.0,0,1.0,0,1.0,0,1.0
22,473,'1',0.00408,0.03423,0.29527,646.8,646.8,646.8,0.0,0.0,0.0,0.0,1,1,57.18,1,1.0,0,1.0,0,1.0,0,1.0
23,26,'1',0.01431,0.06351,0.00506,149.5,149.5,149.5,0.0,0.0,0.0,0.0,1,1,11.71,1,1.0,0,1.0,0,1.0,0,1.0
24,33,'1',0.01503,0.05067,0.0177,162.9,162.9,162.9,0.0,0.0,0.0,0.0,1,1,16.15,1,1.0,0,1.0,0,1.0,0,1.0
24,34,'1',0.01416,0.05672,0.01879,150.3,150.3,150.3,0.0,0.0,0.0,0.0,1,1,18.34,1,1.0,0,1.0,0,1.0,0,1.0
25,34,'1',0.01511,0.06952,0.00593,154.3,154.3,154.3,0.0,0.0,0.0,0.0,1,1,12.67,1,1.0,0,1.0,0,1.0,0,1.0
25,547,'1',0.01161,0.05619,0.00533,162.8,162.8,162.8,0.0,0.0,0.0,0.0,1,1,10.71,1,1.0,0,1.0,0,1.0,0,1.0
26,18,'1',0.02307,0.14347,0.00887,155.3,155.3,155.3,0.0,0.0,0.0,0.0,1,1,19.24,1,1.0,0,1.0,0,1.0,0,1.0
27,15,'1',0.02463,0.09023,0.01262,185.4,185.4,185.4,0.0,0.0,0.0,0.0,1,1,18.08,1,1.0,0,1.0,0,1.0,0,1.0
27,475,'1',0.01914,0.06432,0.0036,188.0,188.0,188.0,0.0,0.0,0.0,0.0,1,1,9.45,1,1.0,0,1.0,0,1.0,0,1.0
28,29,'1',0.00025,0.00103,0.0,345.0,345.0,345.0,0.0,0.0,0.0,0.0,1,1,0.0,1,1.0,0,1.0,0,1.0,0,1.0
29,21,'1',0.01451,0.06831,0.00811,167.8,167.8,167.8,0.0,0.0,0.0,0.0,1,1,12.81,1,1.0,0,1.0,0,1.0,0,1.0
30,31,'1',0.01235,0.05631,0.00785,142.1,142.1,142.1,0.0,0.0,0.0,0.0,1,1,11.25,1,1.0,0,1.0,0,1.0,0,1.0
31,204,'1',0.01844,0.10602,0.01713,141.2,141.2,141.2,0.0,0.0,0.0,0.0,1,1,22.85,1,1.0,0,1.0,0,1.0,0,1.0
32,15,'1',0.00947,0.04816,0.0039,208.5,208.5,208.5,0.0,0.0,0.0,0.0,1,1,9.75,1,1.0,0,1.0,0,1.0,0,1.0
34,468,'1',0.03008,0.13024,0.01634,162.0,162.0,162.0,0.0,0.0,0.0,0.0,1,1,25.29,1,1.0,0,1.0,0,1.0,0,1.0
36,32,'1',0.01342,0.0576,0.02249,199.7,199.7,199.7,0.0,0.0,0.0,0.0,1,1,19.76,1,1.0,0,1.0,0,1.0,0,1.0
36,35,'1',0.0132,0.05853,0.00786,191.3,191.3,191.3,0.0,0.0,0.0,0.0,1,1,11.54,1,1.0,0,1.0,0,1.0,0,1.0
37,122,'1',0.00406,0.04095,0.1376,538.7,538.7,538.7,0.0,0.0,0.0,0.0,1,1,41.51,1,1.0,0,1.0,0,1.0,0,1.0
39,140,'1',0.01632,0.07937,0.00821,138.4,138.4,138.4,0.0,0.0,0.0,0.0,1,1,13.88,1,1.0,0,1.0,0,1.0,0,1.0
40,41,'1',0.00029,0.00113,0.0,345.0,345.0,345.0,0.0,0.0,0.0,0.0,1,1,0.0,1,1.0,0,1.0,0,1.0,0,1.0
40,43,'1',0.00759,0.03916,0.00863,160.5,160.5,160.5,0.0,0.0,0.0,0.0,1,1,10.3,1,1.0,0,1.0,0,1.0,0,1.0
42,43,'1',0.00026,0.00103,0.0,138.0,138.0,138.0,0.0,0.0,0.0,0.0,1,1,0.0,1,1.0,0,1.0,0,1.0,0,1.0
45,40,'1',0.01551,0.05932,0.0125,166.9,166.9,166.9,0.0,0.0,0.0,0.0,1,1,14.58,1,1.0,0,1.0,0,1.0,0,1.0
46,38,'1',0.03387,0.15112,0.02066,153.0,153.0,153.0,0.0,0.0,0.0,0.0,1,1,29.13,1,1.0,0,1.0,0,1.0,0,1.0
46,48,'1',0.00601,0.02566,0.01633,146.0,146.0,146.0,0.0,0.0,0.0,0.0,1,1,13.21,1,1.0,0,1.0,0,1.0,0,1.0
47,37,'1',0.00723,0.05839,0.0884,485.1,485.1,485.1,0.0,0.0,0.0,0.0,1,1,39.97,1,1.0,0,1.0,0,1.0,0,1.0
48,45,'1',0.01959,0.08775,0.01378,172.8,172.8,172.8,0.0,0.0,0.0,0.0,1,1,19.08,1,1.0,0,1.0,0,1.0,0,1.0
48,49,'1',0.02146,0.11918,0.01618,141.0,141.0,141.0,0.0,0.0,0.0,0.0,1,1,24.75,1,1.0,0,1.0,0,1.0,0,1.0
49,50,'1',0.00027,0.00119,0.0,138.0,138.0,138.0,0.0,0.0,0.0,0.0,1,1,0.0,1,1.0,0,1.0,0,1.0,0,1.0
51,44,'1',0.02267,0.10894,0.01316,131.1,131.1,131.1,0.0,0.0,0.0,0.0,1,1,19.98,1,1.0,0,1.0,0,1.0,0,1.0
51,170,'1',0.02426,0.0917,0.00882,130.2,130.2,130.2,0.0,0.0,0.0,0.0,1,1,14.58,1,1.0,0,1.0,0,1.0,0,1.0
52,53,'1',0.00029,0.00109,0.0,345.0,345.0,345.0,0.0,0.0,0.0,0.0,1,1,0.0,1,1.0,0,1.0,0,1.0,0,1.0
52,55,'1',0.00629,0.02698,0.0042,131.9,131.9,131.9,0.0,0.0,0.0,0.0,1,1,7.28,1,1.0,0,1.0,0,1.0,0,1.0
52,110,'1',0.00679,0.03422,0.01324,159.2,159.2,159.2,0.0,0.0,0.0,0.0,1,1,11.84,1,1.0,0,1.0,0,1.0,0,1.0
54,55,'1',0.0098,0.0467,0.00332,142.9,142.9,142.9,0.0,0.0,0.0,0.0,1,1,9.0,1,1.0,0,1.0,0,1.0,0,1.0
55,56,'1',0.00028,0.00117,0.0,138.0,138.0,138.0,0.0,0.0,0.0,0.0,1,1,0.0,1,1.0,0,1.0,0,1.0,0,1.0
57,61,'1',0.00511,0.02077,0.00132,132.8,132.8,132.8,0.0,0.0,0.0,0.0,1,1,3.51,1,1.0,0,1.0,0,1.0,0,1.0
58,57,'1',0.00356,0.0171,0.00131,130.9,130.9,130.9,0.0,0.0,0.0,0.0,1,1,3.36,1,1.0,0,1.0,0,1.0,0,1.0
58,61,'1',0.00679,0.02648,0.00278,135.6,135.6,135.6,0.0,0.0,0.0,0.0,1,1,5.64,1,1.0,0,1.0,0,1.0,0,1.0
59,60,'1',0.00025,0.00112,0.0,138.0,138.0,138.0,0.0,0.0,0.0,0.0,1,1,0.0,1,1.0,0,1.0,0,1.0,0,1.0
59,85,'1',0.00798,0.0323,0.00501,159.9,159.9,159.9,0.0,0.0,0.0,0.0,1,1,7.89,1,1.0,0,1.0,0,1.0,0,1.0
62,64,'1',0.00811,0.03542,0.00462,183.2,183.2,183.2,0.0,0.0,0.0,0.0,1,1,6.52,1,1.0,0,1.0,0,1.0,0,1.0
62,67,'1',0.00468,0.015,0.0016,181.4,181.4,181.4,0.0,0.0,0.0,0.0,0,1,3.4,1,1.0,0,1.0,0,1.0,0,1.0
63,65,'1',0.00224,0.01997,0.01849,623.5,623.5,623.5,0.0,0.0,0.0,0.0,1,1,13.15,1,1.0,0,1.0,0,1.0,0,1.0
65,530,'1',0.00224,0.01667,0.012,627.6,627.6,627.6,0.0,0.0,0.0,0.0,1,1,9.52,1,1.0,0,1.0,0,1.0,0,1.0
66,61,'1',0.00458,0.02094,0.00227,172.6,172.6,172.6,0.0,0.0,0.0,0.0,1,1,3.8,1,1.0,0,1.0,0,1.0,0,1.0
67,66,'1',0.00674,0.02888,0.00148,187.8,187.8,187.8,0.0,0.0,0.0,0.0,1,1,4.26,1,1.0,0,1.0,0,1.0,0,1.0
68,73,'1',0.04686,0.19537,0.02223,191.8,191.8,191.8,0.0,0.0,0.0,0.0,1,1,35.21,1,1.0,0,1.0,0,1.0,0,1.0
68,471,'1',0.01262,0.0545,0.02169,177.0,177.0,177.0,0.0,0.0,0.0,0.0,1,1,19.02,1,1.0,0,1.0,0,1.0,0,1.0
68,472,'1',0.03847,0.19361,0.01836,155.9,155.9,155.9,0.0,0.0,0.0,0.0,1,1,32.49,1,1.0,0,1.0,0,1.0,0,1.0
70,69,'1',0.01291,0.05157,0.01061,156.2,156.2,156.2,0.0,0.0,0.0,0.0,1,1,12.89,1,1.0,0,1.0,0,1.0,0,1.0
71,84,'1',0.00429,0.03775,0.07263,484.9,484.9,484.9,0.0,0.0,0.0,0.0,1,1,27.38,1,1.0,0,1.0,0,1.0,0,1.0
72,69,'1',0.01072,0.03788,0.00373,160.4,160.4,160.4,0.0,0.0,0.0,0.0,1,1,7.78,1,1.0,0,1.0,0,1.0,0,1.0
74,110,'1',0.01262,0.05479,0.03614,197.9,197.9,197.9,0.0,0.0,0.0,0.0,1,1,24.29,1,1.0,0,1.0,0,1.0,0,1.0
74,330,'1',0.00716,0.02949,0.022,194.8,194.8,194.8,0.0,0.0,0.0,0.0,1,1,14.41,1,1.0,0,1.0,0,1.0,0,1.0
75,76,'1',0.00662,0.0249,0.00669,176.3,176.3,176.3,0.0,0.0,0.0,0.0,1,1,9.05,1,1.0,0,1.0,0,1.0,0,1.0
76,102,'1',0.02281,0.09822,0.01169,156.8,156.8,156.8,0.0,0.0,0.0,0.0,1,1,17.96,1,1.0,0,1.0,0,1.0,0,1.0
77,88,'1',0.00508,0.02199,0.00243,170.6,170.6,170.6,0.0,0.0,0.0,0.0,1,1,4.71,1,1.0,0,1.0,0,1.0,0,1.0
77,93,'1',0.00705,0.03549,0.00287,187.8,187.8,187.8,0.0,0.0,0.0,0.0,1,1,6.37,1,1.0,0,1.0,0,1.0,0,1.0
78,100,'1',0.01593,0.05231,0.00282,179.6,179.6,179.6,0.0,0.0,0.0,0.0,1,1,7.74,1,1.0,0,1.0,0,1.0,0,1.0
79,82,'1',0.00244,0.01243,0.00098,152.5,152.5,152.5,0.0,0.0,0.0,0.0,1,1,2.52,1,1.0,0,1.0,0,1.0,0,1.0
79,92,'1',0.00237,0.00812,0.0026,135.2,135.2,135.2,0.0,0.0,0.0,0.0,1,1,2.77,1,1.0,0,1.0,0,1.0,0,1.0
80,81,'1',0.00268,0.01263,0.00258,140.0,140.0,140.0,0.0,0.0,0.0,0.0,1,1,3.88,1,1.0,0,1.0,0,1.0,0,1.0
80,100,'1',0.00842,0.03095,0.0016,151.8,151.8,151.8,0.0,0.0,0.0,0.0,1,1,4.49,1,1.0,0,1.0,0,1.0,0,1.0
81,349,'1',0.02419,0.12919,0.01102,159.9,159.9,159.9,0.0,0.0,0.0,0.0,1,1,19.4,1,1.0,0,1.0,0,1.0,0,1.0
82,88,'1',0.0063,0.02539,0.00136,179.7,179.7,179.7,0.0,0.0,0.0,0.0,1,1,4.07,1,1.0,0,1.0,0,1.0,0,1.0
83,524,'1',0.00174,0.01353,0.08827,450.0,450.0,450.0,0.0,0.0,0.0,0.0,1,1,20.16,1,1.0,0,1.0,0,1.0,0,1.0
84,63,'1',0.00159,0.01303,0.05518,572.4,572.4,572.4,0.0,0.0,0.0,0.0,1,1,14.14,1,1.0,0,1.0,0,1.0,0,1.0
84,83,'1',0.0001,0.001,0.0,976.9,976.9,976.9,0.0,0.0,0.0,0.0,1,1,0.0,1,1.0,0,1.0,0,1.0,0,1.0
84,98,'1',0.00269,0.02403,0.03053,567.0,567.0,567.0,0.0,0.0,0.0,0.0,1,1,14.77,1,1.0,0,1.0,0,1.0,0,1.0
85,86,'1',0.0,0.001,0.0,138.0,138.0,138.0,0.0,0.0,0.0,0.0,1,1,0.0,1,1.0,0,1.0,0,1.0,0,1.0
86,59,'1',0.00798,0.0323,0.0,159.9,159.9,159.9,0.0,0.0,0.0,0.0,1,1,0.0,1,1.0,0,1.0,0,1.0,0,1.0
87,59,'1',0.01058,0.04542,0.00325,164.1,164.1,164.1,0.0,0.0,0.0,0.0,1,1,7.53,1,1.0,0,1.0,0,1.0,0,1.0
88,95,'1',0.00271,0.01301,0.02426,196.1,196.1,196.1,0.0,0.0,0.0,0.0,1,1,11.28,1,1.0,0,1.0,0,1.0,0,1.0
89,78,'1',0.00386,0.02052,0.00269,175.0,175.0,175.0,0.0,0.0,0.0,0.0,1,1,4.38,1,1.0,0,1.0,0,1.0,0,1.0
89,90,'1',0.00025,0.00117,0.0,345.0,345.0,345.0,0.0,0.0,0.0,0.0,1,1,0.0,1,1.0,0,1.0,0,1.0,0,1.0
89,92,'1',0.00615,0.02921,0.00197,166.3,166.3,166.3,0.0,0.0,0.0,0.0,1,1,5.2,1,1.0,0,1.0,0,1.0,0,1.0
91,92,'1',0.00028,0.00111,0.0,345.0,345.0,345.0,0.0,0.0,0.0,0.0,1,1,0.0,1,1.0,0,1.0,0,1.0,0,1.0
92,82,'1',0.00641,0.02942,0.00179,137.8,137.8,137.8,0.0,0.0,0.0,0.0,1,1,4.7,1,1.0,0,1.0,0,1.0,0,1.0
93,62,'1',0.00315,0.01468,0.00485,204.8,204.8,204.8,0.0,0.0,0.0,0.0,1,1,5.66,1,1.0,0,1.0,0,1.0,0,1.0
94,81,'1',0.00419,0.01847,0.00357,139.0,139.0,139.0,0.0,0.0,0.0,0.0,1,1,4.58,1,1.0,0,1.0,0,1.0,0,1.0
94,97,'1',0.00562,0.02693,0.00284,140.9,140.9,140.9,0.0,0.0,0.0,0.0,1,1,5.65,1,1.0,0,1.0,0,1.0,0,1.0
95,97,'1',0.00629,0.02576,0.00268,151.3,151.3,151.3,0.0,0.0,0.0,0.0,1,1,5.57,1,1.0,0,1.0,0,1.0,0,1.0
96,97,'1',0.00029,0.00102,0.0,138.0,138.0,138.0,0.0,0.0,0.0,0.0,1,1,0.0,1,1.0,0,1.0,0,1.0,0,1.0
97,75,'1',0.00878,0.04723,0.0039,172.9,172.9,172.9,0.0,0.0,0.0,0.0,1,1,7.88,1,1.0,0,1.0,0,1.0,0,1.0
98,99,'1',0.0,0.001,0.0,690.0,690.0,690.0,0.0,0.0,0.0,0.0,1,1,0.0,1,1.0,0,1.0,0,1.0,0,1.0
98,101,'1',0.00021,0.00107,0.0,368.0,368.0,368.0,0.0,0.0,0.0,0.0,1,1,0.0,1,1.0,0,1.0,0,1.0,0,1.0
100,95,'1',0.00302,0.01382,0.00118,184.5,184.5,184.5,0.0,0.0,0.0,0.0,1,1,2.71,1,1.0,0,1.0,0,1.0,0,1.0
103,98,'1',0.00297,0.03001,0.11778,532.9,532.9,532.9,0.0,0.0,0.0,0.0,1,1,32.53,1,1.0,0,1.0,0,1.0,0,1.0
103,512,'1',0.00416,0.03757,0.08796,587.2,587.2,587.2,0.0,0.0,0.0,0.0,1,1,32.09,1,1.0,0,1.0,0,1.0,0,1.0
103,613,'1',0.00392,0.03887,0.04656,529.0,529.0,529.0,0.0,0.0,0.0,0.0,1,1,24.27,1,1.0,0,1.0,0,1.0,0,1.0
104,102,'1',0.00675,0.03017,0.00294,160.6,160.6,160.6,0.0,0.0,0.0,0.0,1,1,5.87,1,1.0,0,1.0,0,1.0,0,1.0
105,106,'1',0.00022,0.00116,0.0,138.0,138.0,138.0,0.0,0.0,0.0,0.0,1,1,0.0,1,1.0,0,1.0,0,1.0,0,1.0
106,58,'1',0.00702,0.04235,0.00478,173.5,173.5,173.5,0.0,0.0,0.0,0.0,1,1,8.85,1,1.0,0,1.0,0,1.0,0,1.0
107,534,'1',0.04439,0.15936,0.03758,161.7,161.7,161.7,0.0,0.0,0.0,0.0,1,1,41.27,1,1.0,0,1.0,0,1.0,0,1.0
108,463,'1',0.01303,0.05543,0.00595,150.4,150.4,150.4,0.0,0.0,0.0,0.0,1,1,12.25,1,1.0,0,1.0,0,1.0,0,1.0
109,107,'1',0.0071,0.03082,0.00727,128.3,128.3,128.3,0.0,0.0,0.0,0.0,1,1,8.86,1,1.0,0,1.0,0,1.0,0,1.0
109,117,'1',0.0133,0.06028,0.00504,150.4,150.4,150.4,0.0,0.0,0.0,0.0,1,1,10.65,1,1.0,0,1.0,0,1.0,0,1.0
109,249,'1',0.04327,0.21711,0.01501,142.2,142.2,142.2,0.0,0.0,0.0,0.0,1,1,31.13,1,1.0,0,1.0,0,1.0,0,1.0
110,111,'1',0.00881,0.03152,0.05498,204.0,204.0,204.0,0.0,0.0,0.0,0.0,1,1,22.35,1,1.0,0,1.0,0,1.0,0,1.0
111,261,'1',0.03907,0.19534,0.01572,135.9,135.9,135.9,0.0,0.0,0.0,0.0,1,1,30.39,1,1.0,0,1.0,0,1.0,0,1.0
112,73,'1',0.01206,0.0635,0.00756,187.3,187.3,187.3,0.0,0.0,0.0,0.0,1,1,12.0,1,1.0,0,1.0,0,1.0,0,1.0
112,115,'1',0.00297,0.01737,0.00311,172.2,172.2,172.2,0.0,0.0,0.0,0.0,1,1,4.69,1,1.0,0,1.0,0,1.0,0,1.0
113,115,'1',0.01381,0.04348,0.0026,170.2,170.2,170.2,0.0,0.0,0.0,0.0,1,1,6.41,1,1.0,0,1.0,0,1.0,0,1.0
113,373,'1',0.01154,0.06572,0.00223,164.9,164.9,164.9,0.0,0.0,0.0,0.0,1,1,8.51,1,1.0,0,1.0,0,1.0,0,1.0
114,115,'1',0.00024,0.00117,0.0,345.0,345.0,345.0,0.0,0.0,0.0,0.0,1,1,0.0,1,1.0,0,1.0,0,1.0,0,1.0
116,112,'1',0.02795,0.09056,0.00409,119.4,119.4,119.4,0.0,0.0,0.0,0.0,1,1,11.44,1,1.0,0,1.0,0,1.0,0,1.0
116,115,'1',0.01108,0.05171,0.00731,100.8,100.8,100.8,0.0,0.0,0.0,0.0,1,1,12.44,1,1.0,0,1.0,0,1.0,0,1.0
117,616,'1',0.00285,0.01589,0.00712,153.9,153.9,153.9,0.0,0.0,0.0,0.0,1,1,7.08,1,1.0,0,1.0,0,1.0,0,1.0
118,106,'1',0.01139,0.05676,0.0072,178.7,178.7,178.7,0.0,0.0,0.0,0.0,1,1,12.94,1,1.0,0,1.0,0,1.0,0,1.0
119,70,'1',0.02097,0.09364,0.02218,146.7,146.7,146.7,0.0,0.0,0.0,0.0,1,1,24.67,1,1.0,0,1.0,0,1.0,0,1.0
119,120,'1',0.00419,0.02113,0.00554,148.5,148.5,148.5,0.0,0.0,0.0,0.0,1,1,7.18,1,1.0,0,1.0,0,1.0,0,1.0
119,133,'1',0.01573,0.07063,0.00987,103.5,103.5,103.5,0.0,0.0,0.0,0.0,1,1,14.95,1,1.0,0,1.0,0,1.0,0,1.0
120,121,'1',0.01609,0.07601,0.00787,163.5,163.5,163.5,0.0,0.0,0.0,0.0,1,1,13.51,1,1.0,0,1.0,0,1.0,0,1.0
120,133,'1',0.01978,0.09754,0.01419,121.5,121.5,121.5,0.0,0.0,0.0,0.0,1,1,19.18,1,1.0,0,1.0,0,1.0,0,1.0
121,154,'1',0.01452,0.05895,0.01038,169.9,169.9,169.9,0.0,0.0,0.0,0.0,1,1,13.44,1,1.0,0,1.0,0,1.0,0,1.0
122,124,'1',0.00027,0.00107,0.0,690.0,690.0,690.0,0.0,0.0,0.0,0.0,1,1,0.0,1,1.0,0,1.0,0,1.0,0,1.0
123,39,'1',0.01755,0.07489,0.01607,145.4,145.4,145.4,0.0,0.0,0.0,0.0,1,1,18.49,1,1.0,0,1.0,0,1.0,0,1.0
125,33,'1',0.08644,0.32874,0.02869,159.1,159.1,159.1,0.0,0.0,0.0,0.0,1,1,51.2,1,1.0,0,1.0,0,1.0,0,1.0
125,140,'1',0.01322,0.04697,0.01132,145.3,145.3,145.3,0.0,0.0,0.0,0.0,1,1,13.01,1,1.0,0,1.0,0,1.0,0,1.0
126,128,'1',0.05475,0.21697,0.03636,156.0,156.0,156.0,0.0,0.0,0.0,0.0,1,1,46.06,1,1.0,0,1.0,0,1.0,0,1.0
126,137,'1',0.01927,0.08931,0.00879,130.7,130.7,130.7,0.0,0.0,0.0,0.0,1,1,15.66,1,1.0,0,1.0,0,1.0,0,1.0
126,138,'1',0.03653,0.15094,0.02178,151.5,151.5,151.5,0.0,0.0,0.0,0.0,1,1,30.61,1,1.0,0,1.0,0,1.0,0,1.0
126,139,'1',0.03657,0.17579,0.02874,140.6,140.6,140.6,0.0,0.0,0.0,0.0,1,1,38.39,1,1.0,0,1.0,0,1.0,0,1.0
126,147,'1',0.01795,0.07646,0.01912,128.4,128.4,128.4,0.0,0.0,0.0,0.0,1,1,21.25,1,1.0,0,1.0,0,1.0,0,1.0
127,118,'1',0.007,0.02635,0.00515,173.7,173.7,173.7,0.0,0.0,0.0,0.0,1,1,7.64,1,1.0,0,1.0,0,1.0,0,1.0
127,131,'1',0.01735,0.08945,0.0177,165.3,165.3,165.3,0.0,0.0,0.0,0.0,1,1,22.27,1,1.0,0,1.0,0,1.0,0,1.0
128,118,'1',0.01773,0.04454,0.00829,149.5,149.5,149.5,0.0,0.0,0.0,0.0,1,1,11.53,1,1.0,0,1.0,0,1.0,0,1.0
128,129,'1',0.00028,0.00106,0.0,138.0,138.0,138.0,0.0,0.0,0.0,0.0,1,1,0.0,1,1.0,0,1.0,0,1.0,0,1.0
130,131,'1',0.01691,0.06574,0.00698,148.7,148.7,148.7,0.0,0.0,0.0,0.0,1,1,11.29,1,1.0,0,1.0,0,1.0,0,1.0
131,475,'1',0.0716,0.32698,0.01862,153.4,153.4,153.4,0.0,0.0,0.0,0.0,1,1,42.46,1,1.0,0,1.0,0,1.0,0,1.0
134,136,'1',0.00026,0.00112,0.0,690.0,690.0,690.0,0.0,0.0,0.0,0.0,1,1,0.0,1,1.0,0,1.0,0,1.0,0,1.0
135,137,'1',0.05863,0.22774,0.02594,136.8,136.8,136.8,0.0,0.0,0.0,0.0,1,1,40.94,1,1.0,0,1.0,0,1.0,0,1.0
135,145,'1',0.02729,0.1088,0.03872,179.1,179.1,179.1,0.0,0.0,0.0,0.0,1,1,33.9,1,1.0,0,1.0,0,1.0,0,1.0
137,151,'1',0.01734,0.06356,0.01785,125.5,125.5,125.5,0.0,0.0,0.0,0.0,1,1,18.97,1,1.0,0,1.0,0,1.0,0,1.0
138,561,'1',0.00494,0.02121,0.00177,158.9,158.9,158.9,0.0,0.0,0.0,0.0,1,1,4.38,1,1.0,0,1.0,0,1.0,0,1.0
139,561,'1',0.01495,0.06824,0.00475,146.7,146.7,146.7,0.0,0.0,0.0,0.0,1,1,10.27,1,1.0,0,1.0,0,1.0,0,1.0
141,144,'1',0.00027,0.00106,0.0,1000.0,1000.0,1000.0,0.0,0.0,0.0,0.0,1,1,0.0,1,1.0,0,1.0,0,1.0,0,1.0
142,141,'1',0.0001,0.001,0.0,782.8,782.8,782.8,0.0,0.0,0.0,0.0,1,1,0.0,1,1.0,0,1.0,0,1.0,0,1.0
142,153,'1',0.00142,0.01154,0.03236,609.3,609.3,609.3,0.0,0.0,0.0,0.0,1,1,11.79,1,1.0,0,1.0,0,1.0,0,1.0
143,151,'1',0.00479,0.01793,0.00235,169.0,169.0,169.0,0.0,0.0,0.0,0.0,1,1,4.34,1,1.0,0,1.0,0,1.0,0,1.0
144,600,'1',0.00096,0.00828,0.05577,530.1,530.1,530.1,0.0,0.0,0.0,0.0,1,1,12.2,1,1.0,0,1.0,0,1.0,0,1.0
145,146,'1',0.00022,0.0011,0.0,345.0,345.0,345.0,0.0,0.0,0.0,0.0,1,1,0.0,1,1.0,0,1.0,0,1.0,0,1.0
145,157,'1',0.01243,0.04954,0.00506,160.1,160.1,160.1,0.0,0.0,0.0,0.0,1,1,9.75,1,1.0,0,1.0,0,1.0,0,1.0
147,132,'1',0.00809,0.03748,0.00657,159.9,159.9,159.9,0.0,0.0,0.0,0.0,1,1,9.91,1,1.0,0,1.0,0,1.0,0,1.0
147,468,'1',0.02658,0.14365,0.01966,155.0,155.0,155.0,0.0,0.0,0.0,0.0,1,1,27.69,1,1.0,0,1.0,0,1.0,0,1.0
148,151,'1',0.0037,0.02019,0.00271,205.1,205.1,205.1,0.0,0.0,0.0,0.0,1,1,4.8,1,1.0,0,1.0,0,1.0,0,1.0
149,65,'1',0.00472,0.04493,0.08558,629.3,629.3,629.3,0.0,0.0,0.0,0.0,1,1,32.22,1,1.0,0,1.0,0,1.0,0,1.0
149,142,'1',0.00229,0.02196,0.01927,574.1,574.1,574.1,0.0,0.0,0.0,0.0,1,1,11.54,1,1.0,0,1.0,0,1.0,0,1.0
149,601,'1',0.00151,0.01543,0.03688,631.2,631.2,631.2,0.0,0.0,0.0,0.0,1,1,12.75,1,1.0,0,1.0,0,1.0,0,1.0
151,147,'1',0.00664,0.02439,0.0021,171.8,171.8,171.8,0.0,0.0,0.0,0.0,1,1,4.81,1,1.0,0,1.0,0,1.0,0,1.0
152,150,'1',0.00627,0.03057,0.00174,167.5,167.5,167.5,0.0,0.0,0.0,0.0,1,1,5.1,1,1.0,0,1.0,0,1.0,0,1.0
152,158,'1',0.00728,0.0316,0.00698,157.8,157.8,157.8,0.0,0.0,0.0,0.0,1,1,9.51,1,1.0,0,1.0,0,1.0,0,1.0
154,159,'1',0.00373,0.01636,0.00297,195.7,195.7,195.7,0.0,0.0,0.0,0.0,1,1,4.11,1,1.0,0,1.0,0,1.0,0,1.0
155,154,'1',0.00292,0.01533,0.00183,162.2,162.2,162.2,0.0,0.0,0.0,0.0,1,1,3.59,1,1.0,0,1.0,0,1.0,0,1.0
155,156,'1',0.00024,0.00108,0.0,138.0,138.0,138.0,0.0,0.0,0.0,0.0,1,1,0.0,1,1.0,0,1.0,0,1.0,0,1.0
155,157,'1',0.00467,0.02837,0.00326,150.6,150.6,150.6,0.0,0.0,0.0,0.0,1,1,5.54,1,1.0,0,1.0,0,1.0,0,1.0
158,127,'1',0.00631,0.03374,0.00724,174.5,174.5,174.5,0.0,0.0,0.0,0.0,1,1,10.72,1,1.0,0,1.0,0,1.0,0,1.0
158,150,'1',0.0044,0.02608,0.00301,172.2,172.2,172.2,0.0,0.0,0.0,0.0,1,1,5.9,1,1.0,0,1.0,0,1.0,0,1.0
159,161,'1',0.00443,0.02192,0.00371,169.3,169.3,169.3,0.0,0.0,0.0,0.0,1,1,5.29,1,1.0,0,1.0,0,1.0,0,1.0
159,162,'1',0.0135,0.05937,0.00288,139.9,139.9,139.9,0.0,0.0,0.0,0.0,1,1,8.58,1,1.0,0,1.0,0,1.0,0,1.0
160,148,'1',0.00531,0.02513,0.00263,196.0,196.0,196.0,0.0,0.0,0.0,0.0,1,1,4.7,1,1.0,0,1.0,0,1.0,0,1.0
160,161,'1',0.00372,0.01524,0.0023,179.6,179.6,179.6,0.0,0.0,0.0,0.0,1,1,4.67,1,1.0,0,1.0,0,1.0,0,1.0
161,162,'1',0.00732,0.03622,0.00247,125.2,125.2,125.2,0.0,0.0,0.0,0.0,1,1,5.62,1,1.0,0,1.0,0,1.0,0,1.0
162,163,'1',0.00022,0.00105,0.0,345.0,345.0,345.0,0.0,0.0,0.0,0.0,1,1,0.0,1,1.0,0,1.0,0,1.0,0,1.0
164,167,'1',0.00427,0.01559,0.00148,170.7,170.7,170.7,0.0,0.0,0.0,0.0,1,1,3.58,1,1.0,0,1.0,0,1.0,0,1.0
164,171,'1',0.01079,0.04997,0.00358,133.5,133.5,133.5,0.0,0.0,0.0,0.0,1,1,9.4,1,1.0,0,1.0,0,1.0,0,1.0
166,165,'1',0.0001,0.001,0.0,670.3,670.3,670.3,0.0,0.0,0.0,0.0,1,1,0.0,1,1.0,0,1.0,0,1.0,0,1.0
166,168,'1',0.00029,0.00111,0.0,690.0,690.0,690.0,0.0,0.0,0.0,0.0,1,1,0.0,1,1.0,0,1.0,0,1.0,0,1.0
168,613,'1',0.00619,0.05051,0.14414,516.4,516.4,516.4,0.0,0.0,0.0,0.0,1,1,47.47,1,1.0,0,1.0,0,1.0,0,1.0
169,170,'1',0.00027,0.00109,0.0,138.0,138.0,138.0,0.0,0.0,0.0,0.0,1,1,0.0,1,1.0,0,1.0,0,1.0,0,1.0
170,164,'1',0.0076,0.04174,0.0096,151.9,151.9,151.9,0.0,0.0,0.0,0.0,1,1,12.86,1,1.0,0,1.0,0,1.0,0,1.0
171,167,'1',0.01426,0.05872,0.00459,158.9,158.9,158.9,0.0,0.0,0.0,0.0,1,1,11.63,1,1.0,0,1.0,0,1.0,0,1.0
171,172,'1',0.0161,0.05981,0.01573,125.0,125.0,125.0,0.0,0.0,0.0,0.0,1,1,16.61,1,1.0,0,1.0,0,1.0,0,1.0
172,43,'1',0.03117,0.13925,0.01117,157.5,157.5,157.5,0.0,0.0,0.0,0.0,1,1,21.34,1,1.0,0,1.0,0,1.0,0,1.0
...
0 / END OF BRANCH DATA BEGIN TRANSFORMER DATA
9,8,0,'1',1,1,1,0.0,0.0,2,'            ',1,1,1.0,0,1.0,0,1.0,0,1.0,'            '
0.00183,0.06646,100.0
1.0,115.0,0.0,181.7,181.7,181.7,0,8,1.1,0.9,1.01,0.99,33,0,0.0,0.0,0.0
1.0,230.0
14,13,0,'1',1,1,1,0.0,0.0,2,'            ',1,1,1.0,0,1.0,0,1.0,0,1.0,'            '
0.0012,0.05438,100.0
1.0,115.0,0.0,244.1,244.1,244.1,0,13,1.1,0.9,1.01,0.99,33,0,0.0,0.0,0.0
1.0,230.0
21,20,0,'1',1,1,1,0.0,0.0,2,'            ',1,1,1.0,0,1.0,0,1.0,0,1.0,'            '
0.00195,0.08874,100.0
1.0,115.0,0.0,160.1,160.1,160.1,0,20,1.1,0.9,1.01,0.99,33,0,0.0,0.0,0.0
1.0,230.0
38,37,0,'1',1,1,1,0.0,0.0,2,'            ',1,1,1.0,0,1.0,0,1.0,0,1.0,'            '
0.00139,0.05436,100.0
1.0,115.0,0.0,145.6,145.6,145.6,0,37,1.1,0.9,1.01,0.99,33,0,0.0,0.0,0.0
1.0,230.0
48,47,0,'1',1,1,1,0.0,0.0,2,'            ',1,1,1.0,0,1.0,0,1.0,0,1.0,'            '
0.00097,0.03629,100.0
1.0,115.0,0.0,177.0,177.0,177.0,0,47,1.1,0.9,1.01,0.99,33,0,0.0,0.0,0.0
1.0,230.0
64,63,0,'1',1,1,1,0.0,0.0,2,'            ',1,1,1.0,0,1.0,0,1.0,0,1.0,'            '
0.00164,0.06974,100.0
1.0,115.0,0.0,244.6,244.6,244.6,0,63,1.1,0.9,1.01,0.99,33,0,0.0,0.0,0.0
1.0,230.0
66,65,0,'1',1,1,1,0.0,0.0,2,'            ',1,1,1.0,0,1.0,0,1.0,0,1.0,'            '
0.0012,0.05508,100.0
1.0,115.0,-6.0,271.1,271.1,271.1,-3,65,30.0,-30.0,101.0,99.0,31,29,0.0,0.0,0.0
1.0,230.0
72,71,0,'1',1,1,1,0.0,0.0,2,'            ',1,1,1.0,0,1.0,0,1.0,0,1.0,'            '
0.00097,0.04679,100.0
1.0,115.0,0.0,140.7,140.7,140.7,0,71,1.1,0.9,1.01,0.99,33,0,0.0,0.0,0.0
1.0,230.0
84,86,0,'1',1,1,1,0.0,0.0,2,'            ',1,1,1.0,0,1.0,0,1.0,0,1.0,'            '
0.00143,0.07416,100.0
1.0,230.0,0.0,235.4,235.4,235.4,0,0,1.5,0.51,1.5,0.51,159,0,0.0,0.0,0.0
1.0,115.0
85,84,0,'1',1,1,1,0.0,0.0,2,'            ',1,1,1.0,0,1.0,0,1.0,0,1.0,'            '
0.00143,0.07416,100.0
1.0,115.0,0.0,235.4,235.4,235.4,0,84,1.1,0.9,1.01,0.99,33,0,0.0,0.0,0.0
1.0,230.0
100,98,0,'1',1,1,1,0.0,0.0,2,'            ',1,1,1.0,0,1.0,0,1.0,0,1.0,'            '
0.00223,0.0832,100.0
1.0,115.0,0.0,263.8,263.8,263.8,0,98,1.1,0.9,1.01,0.99,33,0,0.0,0.0,0.0
1.0,230.0
104,103,0,'1',1,1,1,0.0,0.0,2,'            ',1,1,1.0,0,1.0,0,1.0,0,1.0,'            '
0.00119,0.05827,100.0
1.0,115.0,0.0,180.2,180.2,180.2,0,103,1.1,0.9,1.01,0.99,33,0,0.0,0.0,0.0
1.0,230.0
123,122,0,'1',1,1,1,0.0,0.0,2,'            ',1,1,1.0,0,1.0,0,1.0,0,1.0,'            '
0.0012,0.06691,100.0
1.0,115.0,0.0,112.2,112.2,112.2,0,122,1.1,0.9,1.01,0.99,33,0,0.0,0.0,0.0
1.0,230.0
135,134,0,'1',1,1,1,0.0,0.0,2,'            ',1,1,1.0,0,1.0,0,1.0,0,1.0,'            '
0.00143,0.07303,100.0
1.0,115.0,0.0,179.6,179.6,179.6,0,134,1.1,0.9,1.01,0.99,33,0,0.0,0.0,0.0
1.0,230.0
143,142,0,'1',1,1,1,0.0,0.0,2,'            ',1,1,1.0,0,1.0,0,1.0,0,1.0,'            '
0.00147,0.05981,100.0
1.0,115.0,0.0,216.5,216.5,216.5,0,142,1.1,0.9,1.01,0.99,33,0,0.0,0.0,0.0
1.0,230.0
150,149,0,'1',1,1,1,0.0,0.0,2,'            ',1,1,1.0,0,1.0,0,1.0,0,1.0,'            '
0.00098,0.04276,100.0
1.0,115.0,0.0,269.6,269.6,269.6,0,149,1.1,0.9,1.01,0.99,33,0,0.0,0.0,0.0
1.0,230.0
154,153,0,'1',1,1,1,0.0,0.0,2,'            ',1,1,1.0,0,1.0,0,1.0,0,1.0,'            '
0.00117,0.05409,100.0
1.0,115.0,0.0,277.3,277.3,277.3,0,153,1.1,0.9,1.01,0.99,33,0,0.0,0.0,0.0
1.0,230.0
154,153,0,'2',1,1,1,0.0,0.0,2,'            ',1,1,1.0,0,1.0,0,1.0,0,1.0,'            '
0.00117,0.05409,100.0
1.0,115.0,0.0,277.3,277.3,277.3,0,153,1.1,0.9,1.01,0.99,33,0,0.0,0.0,0.0
1.0,230.0
167,166,0,'1',1,1,1,0.0,0.0,2,'            ',1,1,1.0,0,1.0,0,1.0,0,1.0,'            '
0.00141,0.05505,100.0
1.0,115.0,0.0,224.3,224.3,224.3,0,166,1.1,0.9,1.01,0.99,33,0,0.0,0.0,0.0
1.0,230.0
187,186,0,'1',1,1,1,0.0,0.0,2,'            ',1,1,1.0,0,1.0,0,1.0,0,1.0,'            '
0.00068,0.03758,100.0
1.0,115.0,0.0,270.9,270.9,270.9,0,186,1.1,0.9,1.01,0.99,33,0,0.0,0.0,0.0
1.0,230.0
203,201,0,'1',1,1,1,0.0,0.0,2,'            ',1,1,1.0,0,1.0,0,1.0,0,1.0,'            '
0.00141,0.05973,100.0
1.0,115.0,0.0,156.4,156.4,156.4,0,201,1.1,0.9,1.01,0.99,33,0,0.0,0.0,0.0
1.0,230.0
210,209,0,'1',1,1,1,0.0,0.0,2,'            ',1,1,1.0,0,1.0,0,1.0,0,1.0,'            '
0.00136,0.06915,100.0
1.0,115.0,0.0,220.4,220.4,220.4,0,209,1.1,0.9,1.01,0.99,33,0,0.0,0.0,0.0
1.0,230.0
212,211,0,'1',1,1,1,0.0,0.0,2,'            ',1,1,1.0,0,1.0,0,1.0,0,1.0,'            '
0.0019,0.07828,100.0
1.0,115.0,0.0,208.6,208.6,208.6,0,211,1.1,0.9,1.01,0.99,33,0,0.0,0.0,0.0
1.0,230.0
217,216,0,'1',1,1,1,0.0,0.0,2,'            ',1,1,1.0,0,1.0,0,1.0,0,1.0,'            '
0.0007,0.03192,100.0
1.0,115.0,0.0,241.9,241.9,241.9,0,216,1.1,0.9,1.01,0.99,33,0,0.0,0.0,0.0
1.0,230.0
231,230,0,'1',1,1,1,0.0,0.0,2,'            ',1,1,1.0,0,1.0,0,1.0,0,1.0,'            '
0.00138,0.05366,100.0
1.0,115.0,0.0,230.5,230.5,230.5,0,230,1.1,0.9,1.01,0.99,33,0,0.0,0.0,0.0
1.0,230.0
235,234,0,'1',1,1,1,0.0,0.0,2,'            ',1,1,1.0,0,1.0,0,1.0,0,1.0,'            '
0.00141,0.06492,100.0
1.0,115.0,0.0,228.2,228.2,228.2,0,234,1.1,0.9,1.01,0.99,33,0,0.0,0.0,0.0
1.0,230.0
259,258,0,'1',1,1,1,0.0,0.0,2,'            ',1,1,1.0,0,1.0,0,1.0,0,1.0,'            '
0.00136,0.05904,100.0
1.0,115.0,0.0,202.7,202.7,202.7,0,258,1.1,0.9,1.01,0.99,33,0,0.0,0.0,0.0
1.0,230.0
264,263,0,'1',1,1,1,0.0,0.0,2,'            ',1,1,1.0,0,1.0,0,1.0,0,1.0,'            '
0.00133,0.05967,100.0
...